#######################################################################
#
# This file contains crystal structure data downloaded from the
# Cambridge Structural Database (CSD) hosted by the Cambridge
# Crystallographic Data Centre (CCDC).
#
# Full information about CCDC data access policies and citation
# guidelines are available at http://www.ccdc.cam.ac.uk/access/V1
#
# Audit and citation data items may have been added by the CCDC.
# Please retain this information to preserve the provenance of
# this file and to allow appropriate attribution of the data.
#
#######################################################################

data_Niflake_2D
_audit_block_doi                 10.5517/ccdc.csd.cc2669rh
_database_code_depnum_ccdc_archive 'CCDC 2031856'
loop_
_citation_id
_citation_doi
_citation_year
1 10.1038/s41563-020-00847-7 2020
loop_
_audit_author_name
_audit_author_address
'Jian Li'
;Peking University
China
;
_audit_update_record
;
2020-09-13 deposited with the CCDC.	2021-07-29 downloaded from the CCDC.
;
_audit_creation_date             2019-09-12
_audit_creation_method           'Materials Studio'
_symmetry_space_group_name_H-M   P-62M
_symmetry_Int_Tables_number      189
_symmetry_cell_setting           hexagonal
loop_
_symmetry_equiv_pos_as_xyz
x,y,z
-y,x-y,z
-x+y,-x,z
x,y,-z
-y,x-y,-z
-x+y,-x,-z
y,x,-z
x-y,-y,-z
-x,-x+y,-z
y,x,z
x-y,-y,z
-x,-x+y,z
_cell_length_a                   26.0020
_cell_length_b                   26.0020
_cell_length_c                   3.2010
_cell_angle_alpha                90.0000
_cell_angle_beta                 90.0000
_cell_angle_gamma                120.0000
loop_
_atom_site_label
_atom_site_type_symbol
_atom_site_fract_x
_atom_site_fract_y
_atom_site_fract_z
_atom_site_U_iso_or_equiv
_atom_site_adp_type
_atom_site_occupancy
Ni1 Ni 0.00000 0.49112 0.50000 0.02533 Uiso 1.00
C73 C 0.11396 0.51924 0.50000 0.02533 Uiso 1.00
C74 C 0.16558 0.51526 0.50000 0.02533 Uiso 1.00
C75 C 0.22146 0.56664 0.50000 0.02533 Uiso 1.00
C76 C 0.11659 0.57347 0.50000 0.02533 Uiso 1.00
C77 C 0.17280 0.62611 0.50000 0.02533 Uiso 1.00
C78 C 0.22595 0.62286 0.50000 0.02533 Uiso 1.00
C79 C 0.28381 0.67338 0.50000 0.02533 Uiso 1.00
N80 N 0.27117 0.56199 0.50000 0.02533 Uiso 1.00
O81 O 0.05823 0.46913 0.50000 0.02533 Uiso 1.00
O82 O 0.06169 0.57188 0.50000 0.02533 Uiso 1.00
N140 N 0.66667 0.33333 0.50000 0.02533 Uiso 1.00
loop_
_geom_bond_atom_site_label_1
_geom_bond_atom_site_label_2
_geom_bond_distance
_geom_bond_site_symmetry_2
_ccdc_geom_bond_type
Ni1 O81 1.867 . S
Ni1 O81 1.867 9_556 S
Ni1 O82 1.901 . S
Ni1 O82 1.901 9_556 S
C73 C74 1.397 . S
C73 C76 1.377 . S
C73 O81 1.382 . S
C74 C75 1.398 . S
C75 C78 1.407 . S
C75 N80 1.357 . S
C76 C77 1.417 . S
C76 O82 1.407 . S
C77 C78 1.426 . S
C78 C79 1.419 . S
C79 N140 1.383 7_556 S
C79 N80 1.360 3_565 D
N80 C79 1.360 2_665 D
N140 C79 1.383 7_556 S
N140 C79 1.383 9_656 S
N140 C79 1.383 8_666 S
