# generated using pymatgen
data_ZnH12C20S2(NO2)2
_symmetry_space_group_name_H-M   'P 1'
_cell_length_a   9.66300000
_cell_length_b   12.04200000
_cell_length_c   19.63200000
_cell_angle_alpha   106.03700000
_cell_angle_beta   97.60800000
_cell_angle_gamma   90.37300000
_symmetry_Int_Tables_number   1
_chemical_formula_structural   ZnH12C20S2(NO2)2
_chemical_formula_sum   'Zn4 H48 C80 S8 N8 O16'
_cell_volume   2173.96041065
_cell_formula_units_Z   4
loop_
 _symmetry_equiv_pos_site_id
 _symmetry_equiv_pos_as_xyz
  1  'x, y, z'
loop_
 _atom_site_type_symbol
 _atom_site_label
 _atom_site_symmetry_multiplicity
 _atom_site_fract_x
 _atom_site_fract_y
 _atom_site_fract_z
 _atom_site_occupancy
  Zn  Zn0  1  0.61213000  0.42242000  0.97285000  1.0
  Zn  Zn1  1  0.38787000  0.57758000  0.02715000  1.0
  Zn  Zn2  1  0.63512000  0.06517000  0.50825000  1.0
  Zn  Zn3  1  0.36488000  0.93483000  0.49175000  1.0
  H  H4  1  0.13290000  0.32250000  0.07820000  1
  H  H5  1  0.86710000  0.67750000  0.92180000  1
  H  H6  1  0.11100000  0.98230000  0.07230000  1
  H  H7  1  0.88900000  0.01770000  0.92770000  1
  H  H8  1  0.32090000  0.95780000  0.02650000  1
  H  H9  1  0.67910000  0.04220000  0.97350000  1
  H  H10  1  0.44500000  0.11360000  0.01210000  1
  H  H11  1  0.55500000  0.88640000  0.98790000  1
  H  H12  1  0.70430000  0.31970000  0.13670000  1
  H  H13  1  0.29570000  0.68030000  0.86330000  1
  H  H14  1  0.67170000  0.15940000  0.17940000  1
  H  H15  1  0.32830000  0.84060000  0.82060000  1
  H  H16  1  0.08500000  0.47060000  0.83170000  1
  H  H17  1  0.91500000  0.52940000  0.16830000  1
  H  H18  1  0.04820000  0.27750000  0.62390000  1
  H  H19  1  0.95180000  0.72250000  0.37610000  1
  H  H20  1  0.28500000  0.24040000  0.64000000  1
  H  H21  1  0.71500000  0.75960000  0.36000000  1
  H  H22  1  0.41790000  0.30740000  0.75250000  1
  H  H23  1  0.58210000  0.69260000  0.24750000  1
  H  H24  1  0.58880000  0.34090000  0.63780000  1
  H  H25  1  0.41120000  0.65910000  0.36220000  1
  H  H26  1  0.56820000  0.47860000  0.74960000  1
  H  H27  1  0.43180000  0.52140000  0.25040000  1
  H  H28  1  0.91950000  0.79540000  0.53870000  1
  H  H29  1  0.08050000  0.20460000  0.46130000  1
  H  H30  1  0.90770000  0.48530000  0.58180000  1
  H  H31  1  0.09230000  0.51470000  0.41820000  1
  H  H32  1  0.66860000  0.46870000  0.54680000  1
  H  H33  1  0.33140000  0.53130000  0.45320000  1
  H  H34  1  0.55060000  0.61720000  0.51190000  1
  H  H35  1  0.44940000  0.38280000  0.48810000  1
  H  H36  1  0.38660000  0.75900000  0.59870000  1
  H  H37  1  0.61340000  0.24100000  0.40130000  1
  H  H38  1  0.40680000  0.63600000  0.67510000  1
  H  H39  1  0.59320000  0.36400000  0.32490000  1
  H  H40  1  0.71110000  0.15140000  0.73230000  1
  H  H41  1  0.28890000  0.84860000  0.26770000  1
  H  H42  1  0.53760000  0.17470000  0.91350000  1
  H  H43  1  0.46240000  0.82530000  0.08650000  1
  H  H44  1  0.33960000  0.06940000  0.84310000  1
  H  H45  1  0.66040000  0.93060000  0.15690000  1
  H  H46  1  0.32670000  0.00400000  0.72040000  1
  H  H47  1  0.67330000  0.99600000  0.27960000  1
  H  H48  1  0.92160000  0.42490000  0.00670000  1
  H  H49  1  0.07840000  0.57510000  0.99330000  1
  H  H50  1  0.09960000  0.33930000  0.93760000  1
  H  H51  1  0.90040000  0.66070000  0.06240000  1
  C  C52  1  0.37300000  0.33570000  0.03310000  1
  C  C53  1  0.62700000  0.66430000  0.96690000  1
  C  C54  1  0.30060000  0.23340000  0.04320000  1
  C  C55  1  0.69940000  0.76660000  0.95680000  1
  C  C56  1  0.17120000  0.24820000  0.06810000  1
  C  C57  1  0.82880000  0.75180000  0.93190000  1
  C  C58  1  0.09730000  0.15570000  0.07850000  1
  C  C59  1  0.90270000  0.84430000  0.92150000  1
  C  C60  1  0.15760000  0.04610000  0.06410000  1
  C  C61  1  0.84240000  0.95390000  0.93590000  1
  C  C62  1  0.28340000  0.03230000  0.03810000  1
  C  C63  1  0.71660000  0.96770000  0.96190000  1
  C  C64  1  0.35660000  0.12450000  0.02860000  1
  C  C65  1  0.64340000  0.87550000  0.97140000  1
  C  C66  1  0.96220000  0.17590000  0.10660000  1
  C  C67  1  0.03780000  0.82410000  0.89340000  1
  C  C68  1  0.77050000  0.26120000  0.13370000  1
  C  C69  1  0.22950000  0.73880000  0.86630000  1
  C  C70  1  0.75000000  0.17240000  0.15750000  1
  C  C71  1  0.25000000  0.82760000  0.84250000  1
  C  C72  1  0.34950000  0.43820000  0.87600000  1
  C  C73  1  0.65050000  0.56180000  0.12400000  1
  C  C74  1  0.26390000  0.39550000  0.80340000  1
  C  C75  1  0.73610000  0.60450000  0.19660000  1
  C  C76  1  0.12450000  0.42060000  0.79340000  1
  C  C77  1  0.87550000  0.57940000  0.20660000  1
  C  C78  1  0.04060000  0.37300000  0.72720000  1
  C  C79  1  0.95940000  0.62700000  0.27280000  1
  C  C80  1  0.10250000  0.30690000  0.66960000  1
  C  C81  1  0.89750000  0.69310000  0.33040000  1
  C  C82  1  0.24290000  0.28460000  0.67930000  1
  C  C83  1  0.75710000  0.71540000  0.32070000  1
  C  C84  1  0.32270000  0.32620000  0.74590000  1
  C  C85  1  0.67730000  0.67380000  0.25410000  1
  C  C86  1  0.88940000  0.39210000  0.71830000  1
  C  C87  1  0.11060000  0.60790000  0.28170000  1
  C  C88  1  0.66690000  0.37110000  0.67320000  1
  C  C89  1  0.33310000  0.62890000  0.32680000  1
  C  C90  1  0.65380000  0.44840000  0.73550000  1
  C  C91  1  0.34620000  0.55160000  0.26450000  1
  C  C92  1  0.64750000  0.82120000  0.50560000  1
  C  C93  1  0.35250000  0.17880000  0.49440000  1
  C  C94  1  0.72350000  0.72150000  0.52230000  1
  C  C95  1  0.27650000  0.27850000  0.47770000  1
  C  C96  1  0.86800000  0.72950000  0.54120000  1
  C  C97  1  0.13200000  0.27050000  0.45880000  1
  C  C98  1  0.93870000  0.64220000  0.56380000  1
  C  C99  1  0.06130000  0.35780000  0.43620000  1
  C  C100  1  0.86160000  0.54520000  0.56620000  1
  C  C101  1  0.13840000  0.45480000  0.43380000  1
  C  C102  1  0.71960000  0.53600000  0.54610000  1
  C  C103  1  0.28040000  0.46400000  0.45390000  1
  C  C104  1  0.64930000  0.62390000  0.52480000  1
  C  C105  1  0.35070000  0.37610000  0.47520000  1
  C  C106  1  0.08880000  0.65500000  0.58900000  1
  C  C107  1  0.91120000  0.34500000  0.41100000  1
  C  C108  1  0.30890000  0.71630000  0.60540000  1
  C  C109  1  0.69110000  0.28370000  0.39460000  1
  C  C110  1  0.32190000  0.64730000  0.64790000  1
  C  C111  1  0.67810000  0.35270000  0.35210000  1
  C  C112  1  0.50410000  0.03950000  0.63450000  1
  C  C113  1  0.49590000  0.96050000  0.36550000  1
  C  C114  1  0.51700000  0.07310000  0.71440000  1
  C  C115  1  0.48300000  0.92690000  0.28560000  1
  C  C116  1  0.63590000  0.13480000  0.75520000  1
  C  C117  1  0.36410000  0.86520000  0.24480000  1
  C  C118  1  0.64500000  0.17220000  0.82890000  1
  C  C119  1  0.35500000  0.82780000  0.17110000  1
  C  C120  1  0.53290000  0.14850000  0.86290000  1
  C  C121  1  0.46710000  0.85150000  0.13710000  1
  C  C122  1  0.41560000  0.08600000  0.82070000  1
  C  C123  1  0.58440000  0.91400000  0.17930000  1
  C  C124  1  0.40720000  0.04780000  0.74810000  1
  C  C125  1  0.59280000  0.95220000  0.25190000  1
  C  C126  1  0.76920000  0.23860000  0.87290000  1
  C  C127  1  0.23080000  0.76140000  0.12710000  1
  C  C128  1  0.90250000  0.36550000  0.96290000  1
  C  C129  1  0.09750000  0.63450000  0.03710000  1
  C  C130  1  0.00300000  0.31730000  0.92490000  1
  C  C131  1  0.99700000  0.68270000  0.07510000  1
  S  S132  1  0.88580000  0.08340000  0.14342000  1
  S  S133  1  0.11420000  0.91660000  0.85658000  1
  S  S134  1  0.81409000  0.48475000  0.78596000  1
  S  S135  1  0.18591000  0.51525000  0.21404000  1
  S  S136  1  0.16430000  0.58160000  0.64649000  1
  S  S137  1  0.83570000  0.41840000  0.35351000  1
  S  S138  1  0.93417000  0.21141000  0.85082000  1
  S  S139  1  0.06583000  0.78859000  0.14918000  1
  N  N140  1  0.88530000  0.26790000  0.10520000  1
  N  N141  1  0.11470000  0.73210000  0.89480000  1
  N  N142  1  0.80070000  0.33830000  0.66370000  1
  N  N143  1  0.19930000  0.66170000  0.33630000  1
  N  N144  1  0.17830000  0.72250000  0.57210000  1
  N  N145  1  0.82170000  0.27750000  0.42790000  1
  N  N146  1  0.76860000  0.32180000  0.93300000  1
  N  N147  1  0.23140000  0.67820000  0.06700000  1
  O  O148  1  0.49090000  0.31970000  0.01040000  1
  O  O149  1  0.50910000  0.68030000  0.98960000  1
  O  O150  1  0.47090000  0.40400000  0.88340000  1
  O  O151  1  0.52910000  0.59600000  0.11660000  1
  O  O152  1  0.71970000  0.90740000  0.50400000  1
  O  O153  1  0.28030000  0.09260000  0.49600000  1
  O  O154  1  0.60330000  0.07440000  0.60890000  1
  O  O155  1  0.39670000  0.92560000  0.39110000  1
  O  O156  1  0.31330000  0.42920000  0.04520000  1.0
  O  O157  1  0.68670000  0.57080000  0.95480000  1.0
  O  O158  1  0.29190000  0.50580000  0.92400000  1.0
  O  O159  1  0.70810000  0.49420000  0.07600000  1.0
  O  O160  1  0.51680000  0.81150000  0.49450000  1.0
  O  O161  1  0.48320000  0.18850000  0.50550000  1.0
  O  O162  1  0.39970000  0.97980000  0.59920000  1.0
  O  O163  1  0.60030000  0.02020000  0.40080000  1.0
