# generated using pymatgen
data_Mn7H56C104(NO4)8
_symmetry_space_group_name_H-M   'P 1'
_cell_length_a   13.13600000
_cell_length_b   14.88200000
_cell_length_c   15.28300000
_cell_angle_alpha   116.26000000
_cell_angle_beta   93.42000000
_cell_angle_gamma   108.77000000
_symmetry_Int_Tables_number   1
_chemical_formula_structural   Mn7H56C104(NO4)8
_chemical_formula_sum   'Mn7 H56 C104 N8 O32'
_cell_volume   2463.99170656
_cell_formula_units_Z   1
loop_
 _symmetry_equiv_pos_site_id
 _symmetry_equiv_pos_as_xyz
  1  'x, y, z'
loop_
 _atom_site_type_symbol
 _atom_site_label
 _atom_site_symmetry_multiplicity
 _atom_site_fract_x
 _atom_site_fract_y
 _atom_site_fract_z
 _atom_site_occupancy
  Mn  Mn0  1  0.50000000  0.00000000  0.00000000  1.0
  Mn  Mn1  1  0.83897000  0.40758000  0.31321000  1.0
  Mn  Mn2  1  0.16103000  0.59242000  0.68679000  1.0
  Mn  Mn3  1  0.81321000  0.35450000  0.98899000  1.0
  Mn  Mn4  1  0.18679000  0.64550000  0.01101000  1.0
  Mn  Mn5  1  0.64783000  0.11650000  0.69971000  1.0
  Mn  Mn6  1  0.35217000  0.88350000  0.30029000  1.0
  H  H7  1  0.51900000  0.10300000  0.35900000  1.0
  H  H8  1  0.48100000  0.89700000  0.64100000  1.0
  H  H9  1  0.07700000  0.63400000  0.51100000  1.0
  H  H10  1  0.92300000  0.36600000  0.48900000  1.0
  H  H11  1  0.55000000  0.66300000  0.20300000  1.0
  H  H12  1  0.45000000  0.33700000  0.79700000  1.0
  H  H13  1  0.21800000  0.95200000  0.59700000  1.0
  H  H14  1  0.78200000  0.04800000  0.40300000  1.0
  H  H15  1  0.05200000  0.91700000  0.49900000  1.0
  H  H16  1  0.94800000  0.08300000  0.50100000  1.0
  H  H17  1  0.31700000  0.98200000  0.74500000  1.0
  H  H18  1  0.68300000  0.01800000  0.25500000  1.0
  H  H19  1  0.96100000  0.15500000  0.96900000  1.0
  H  H20  1  0.03900000  0.84500000  0.03100000  1.0
  H  H21  1  0.03700000  0.60700000  0.35400000  1.0
  H  H22  1  0.96300000  0.39300000  0.64600000  1.0
  H  H23  1  0.57000000  0.14600000  0.51700000  1.0
  H  H24  1  0.43000000  0.85400000  0.48300000  1.0
  H  H25  1  0.68900000  0.69000000  0.50800000  1.0
  H  H26  1  0.31100000  0.31000000  0.49200000  1.0
  H  H27  1  0.87400000  0.15100000  0.83600000  1.0
  H  H28  1  0.12600000  0.84900000  0.16400000  1.0
  H  H29  1  0.64500000  0.42400000  0.19000000  1.0
  H  H30  1  0.35500000  0.57600000  0.81000000  1.0
  H  H31  1  0.29200000  0.46300000  0.96900000  1.0
  H  H32  1  0.70800000  0.53700000  0.03100000  1.0
  H  H33  1  0.10600000  0.98000000  0.78800000  1.0
  H  H34  1  0.89400000  0.02000000  0.21200000  1.0
  H  H35  1  0.69300000  0.46800000  0.59500000  1.0
  H  H36  1  0.30700000  0.53200000  0.40500000  1.0
  H  H37  1  0.95800000  0.89600000  0.66800000  1.0
  H  H38  1  0.04200000  0.10400000  0.33200000  1.0
  H  H39  1  0.85900000  0.70800000  0.21400000  1.0
  H  H40  1  0.14100000  0.29200000  0.78600000  1.0
  H  H41  1  0.83100000  0.85800000  0.53300000  1.0
  H  H42  1  0.16900000  0.14200000  0.46700000  1.0
  H  H43  1  0.30100000  0.31500000  0.98600000  1.0
  H  H44  1  0.69900000  0.68500000  0.01400000  1.0
  H  H45  1  0.93400000  0.88100000  0.35800000  1.0
  H  H46  1  0.06600000  0.11900000  0.64200000  1.0
  H  H47  1  0.56000000  0.66100000  0.37100000  1.0
  H  H48  1  0.44000000  0.33900000  0.62900000  1.0
  H  H49  1  0.42600000  0.34400000  0.11900000  1.0
  H  H50  1  0.57400000  0.65600000  0.88100000  1.0
  H  H51  1  0.38200000  0.19300000  0.19400000  1.0
  H  H52  1  0.61800000  0.80700000  0.80600000  1.0
  H  H53  1  0.55300000  0.41800000  0.47600000  1.0
  H  H54  1  0.44700000  0.58200000  0.52400000  1.0
  H  H55  1  0.78600000  0.49700000  0.74500000  1.0
  H  H56  1  0.21400000  0.50300000  0.25500000  1.0
  H  H57  1  0.44000000  0.37500000  0.32300000  1.0
  H  H58  1  0.56000000  0.62500000  0.67700000  1.0
  H  H59  1  0.21600000  0.12000000  0.07800000  1.0
  H  H60  1  0.78400000  0.88000000  0.92200000  1.0
  H  H61  1  0.15700000  0.27100000  0.26700000  1.0
  H  H62  1  0.84300000  0.72900000  0.73300000  1.0
  C  C63  1  0.40130000  0.01910000  0.17980000  1.0
  C  C64  1  0.59870000  0.98090000  0.82020000  1.0
  C  C65  1  0.44510000  0.13420000  0.26450000  1.0
  C  C66  1  0.55490000  0.86580000  0.73550000  1.0
  C  C67  1  0.42360000  0.21460000  0.25270000  1.0
  C  C68  1  0.57640000  0.78540000  0.74730000  1.0
  C  C69  1  0.46190000  0.31920000  0.33130000  1.0
  C  C70  1  0.53810000  0.68080000  0.66870000  1.0
  C  C71  1  0.52540000  0.34680000  0.42220000  1.0
  C  C72  1  0.47460000  0.65320000  0.57780000  1.0
  C  C73  1  0.55070000  0.26910000  0.43590000  1.0
  C  C74  1  0.44930000  0.73090000  0.56410000  1.0
  C  C75  1  0.30820000  0.83220000  0.80150000  1.0
  C  C76  1  0.69180000  0.16780000  0.19850000  1.0
  C  C77  1  0.25160000  0.82130000  0.70670000  1.0
  C  C78  1  0.74840000  0.17870000  0.29330000  1.0
  C  C79  1  0.26750000  0.91000000  0.69210000  1.0
  C  C80  1  0.73250000  0.09000000  0.30790000  1.0
  C  C81  1  0.42750000  0.67020000  0.06370000  1.0
  C  C82  1  0.57250000  0.32980000  0.93630000  1.0
  C  C83  1  0.42430000  0.57900000  0.08380000  1.0
  C  C84  1  0.57570000  0.42100000  0.91620000  1.0
  C  C85  1  0.34690000  0.47370000  0.02080000  1.0
  C  C86  1  0.65310000  0.52630000  0.97920000  1.0
  C  C87  1  0.34760000  0.38880000  0.03590000  1.0
  C  C88  1  0.65240000  0.61120000  0.96410000  1.0
  C  C89  1  0.20720000  0.89350000  0.60560000  1.0
  C  C90  1  0.79280000  0.10650000  0.39440000  1.0
  C  C91  1  0.12630000  0.70600000  0.55480000  1.0
  C  C92  1  0.87370000  0.29400000  0.44520000  1.0
  C  C93  1  0.01720000  0.66440000  0.35860000  1.0
  C  C94  1  0.98280000  0.33560000  0.64140000  1.0
  C  C95  1  0.68570000  0.94800000  0.52310000  1.0
  C  C96  1  0.31430000  0.05200000  0.47690000  1.0
  C  C97  1  0.90190000  0.53060000  0.18430000  1.0
  C  C98  1  0.09810000  0.46940000  0.81570000  1.0
  C  C99  1  0.81860000  0.58390000  0.50240000  1.0
  C  C100  1  0.18140000  0.41610000  0.49760000  1.0
  C  C101  1  0.73380000  0.34260000  0.71260000  1.0
  C  C102  1  0.26620000  0.65740000  0.28740000  1.0
  C  C103  1  0.05860000  0.76750000  0.44390000  1.0
  C  C104  1  0.94140000  0.23250000  0.55610000  1.0
  C  C105  1  0.78620000  0.36000000  0.81170000  1.0
  C  C106  1  0.21380000  0.64000000  0.18830000  1.0
  C  C107  1  0.73460000  0.57050000  0.42060000  1.0
  C  C108  1  0.26540000  0.42950000  0.57940000  1.0
  C  C109  1  0.50210000  0.51360000  0.17940000  1.0
  C  C110  1  0.49790000  0.48640000  0.82060000  1.0
  C  C111  1  0.67540000  0.63530000  0.44000000  1.0
  C  C112  1  0.32460000  0.36470000  0.56000000  1.0
  C  C113  1  0.77610000  0.97320000  0.60790000  1.0
  C  C114  1  0.22390000  0.02680000  0.39210000  1.0
  C  C115  1  0.50050000  0.59810000  0.16330000  1.0
  C  C116  1  0.49950000  0.40190000  0.83670000  1.0
  C  C117  1  0.94510000  0.64150000  0.27430000  1.0
  C  C118  1  0.05490000  0.35850000  0.72570000  1.0
  C  C119  1  0.58460000  0.53630000  0.26480000  1.0
  C  C120  1  0.41540000  0.46370000  0.73520000  1.0
  C  C121  1  0.93180000  0.02590000  0.77080000  1.0
  C  C122  1  0.06820000  0.97410000  0.22920000  1.0
  C  C123  1  0.50810000  0.16240000  0.35600000  1.0
  C  C124  1  0.49190000  0.83760000  0.64400000  1.0
  C  C125  1  0.61570000  0.21780000  0.55740000  1.0
  C  C126  1  0.38430000  0.78220000  0.44260000  1.0
  C  C127  1  0.91380000  0.72180000  0.27340000  1.0
  C  C128  1  0.08620000  0.27820000  0.72660000  1.0
  C  C129  1  0.61920000  0.29820000  0.53240000  1.0
  C  C130  1  0.38080000  0.70180000  0.46760000  1.0
  C  C131  1  0.68660000  0.40450000  0.60350000  1.0
  C  C132  1  0.31340000  0.59550000  0.39650000  1.0
  C  C133  1  0.01450000  0.05650000  0.86060000  1.0
  C  C134  1  0.98550000  0.94350000  0.13940000  1.0
  C  C135  1  0.64790000  0.47430000  0.25160000  1.0
  C  C136  1  0.35210000  0.52570000  0.74840000  1.0
  C  C137  1  0.13230000  0.79000000  0.53490000  1.0
  C  C138  1  0.86770000  0.21000000  0.46510000  1.0
  C  C139  1  0.02530000  0.84640000  0.44190000  1.0
  C  C140  1  0.97470000  0.15360000  0.55810000  1.0
  C  C141  1  0.86670000  0.08460000  0.77540000  1.0
  C  C142  1  0.13330000  0.91540000  0.22460000  1.0
  C  C143  1  0.74400000  0.42740000  0.69430000  1.0
  C  C144  1  0.25600000  0.57260000  0.30570000  1.0
  C  C145  1  0.60110000  0.61990000  0.36150000  1.0
  C  C146  1  0.39890000  0.38010000  0.63850000  1.0
  C  C147  1  0.42560000  0.40830000  0.11420000  1.0
  C  C148  1  0.57440000  0.59170000  0.88580000  1.0
  C  C149  1  0.95240000  0.82330000  0.35790000  1.0
  C  C150  1  0.04760000  0.17670000  0.64210000  1.0
  C  C151  1  0.91540000  0.93700000  0.67710000  1.0
  C  C152  1  0.08460000  0.06300000  0.32290000  1.0
  C  C153  1  0.83920000  0.91230000  0.59520000  1.0
  C  C154  1  0.16080000  0.08770000  0.40480000  1.0
  C  C155  1  0.01270000  0.12500000  0.95760000  1.0
  C  C156  1  0.98730000  0.87500000  0.04240000  1.0
  C  C157  1  0.09000000  0.14950000  0.04010000  1.0
  C  C158  1  0.91000000  0.85050000  0.95990000  1.0
  C  C159  1  0.08790000  0.22600000  0.14350000  1.0
  C  C160  1  0.91210000  0.77400000  0.85650000  1.0
  C  C161  1  0.09680000  0.01600000  0.84870000  1.0
  C  C162  1  0.90320000  0.98400000  0.15130000  1.0
  C  C163  1  0.17430000  0.03840000  0.92960000  1.0
  C  C164  1  0.82570000  0.96160000  0.07040000  1.0
  C  C165  1  0.16760000  0.10400000  0.02510000  1.0
  C  C166  1  0.83240000  0.89600000  0.97490000  1.0
  N  N167  1  0.72230000  0.49100000  0.32734000  1.0
  N  N168  1  0.27770000  0.50900000  0.67266000  1.0
  N  N169  1  0.67150000  0.23940000  0.64490000  1.0
  N  N170  1  0.32850000  0.76060000  0.35510000  1.0
  N  N171  1  0.78980000  0.05900000  0.69730000  1.0
  N  N172  1  0.21020000  0.94100000  0.30270000  1.0
  N  N173  1  0.18320000  0.72032000  0.63816000  1.0
  N  N174  1  0.81680000  0.27968000  0.36184000  1.0
  O  O175  1  0.88519000  0.52379000  0.09899000  1.0
  O  O176  1  0.11481000  0.47621000  0.90101000  1.0
  O  O177  1  0.88067000  0.44692000  0.19382000  1.0
  O  O178  1  0.11933000  0.55308000  0.80618000  1.0
  O  O179  1  0.85090000  0.44990000  0.87731000  1.0
  O  O180  1  0.14910000  0.55010000  0.12269000  1.0
  O  O181  1  0.87309000  0.52411000  0.47458000  1.0
  O  O182  1  0.12691000  0.47589000  0.52542000  1.0
  O  O183  1  0.62170000  0.99753000  0.54816000  1.0
  O  O184  1  0.37830000  0.00247000  0.45184000  1.0
  O  O185  1  0.37634000  0.00300000  0.09130000  1.0
  O  O186  1  0.62366000  0.99700000  0.90870000  1.0
  O  O187  1  0.75590000  0.27652000  0.82498000  1.0
  O  O188  1  0.24410000  0.72348000  0.17502000  1.0
  O  O189  1  0.50850000  0.75906000  0.11011000  1.0
  O  O190  1  0.49150000  0.24094000  0.88989000  1.0
  O  O191  1  0.68070000  0.88090000  0.43646000  1.0
  O  O192  1  0.31930000  0.11910000  0.56354000  1.0
  O  O193  1  0.82700000  0.65020000  0.58987000  1.0
  O  O194  1  0.17300000  0.34980000  0.41013000  1.0
  O  O195  1  0.15600000  0.23190000  0.21380000  1.0
  O  O196  1  0.84400000  0.76810000  0.78620000  1.0
  O  O197  1  0.03250000  0.27860000  0.16100000  1.0
  O  O198  1  0.96750000  0.72140000  0.83900000  1.0
  O  O199  1  0.37422000  0.92439000  0.86598000  1.0
  O  O200  1  0.62578000  0.07561000  0.13402000  1.0
  O  O201  1  0.39000000  0.94360000  0.19876000  1.0
  O  O202  1  0.61000000  0.05640000  0.80124000  1.0
  O  O203  1  0.28191000  0.74689000  0.80950000  1.0
  O  O204  1  0.71809000  0.25311000  0.19050000  1.0
  O  O205  1  0.34797000  0.65064000  0.99765000  1.0
  O  O206  1  0.65203000  0.34936000  0.00235000  1.0
