data_image0
_cell_length_a       18.5948
_cell_length_b       18.5949
_cell_length_c       18.595
_cell_angle_alpha    59.9999
_cell_angle_beta     60
_cell_angle_gamma    60.0003

_symmetry_space_group_name_H-M    "P 1"
_symmetry_int_tables_number       1

loop_
  _symmetry_equiv_pos_as_xyz
  'x, y, z'

loop_
  _atom_site_label
  _atom_site_occupancy
  _atom_site_fract_x
  _atom_site_fract_y
  _atom_site_fract_z
  _atom_site_thermal_displace_type
  _atom_site_B_iso_or_equiv
  _atom_site_type_symbol
  O1       1.0000 0.87441  0.02050  0.61373  Biso   1.000  O
  O2       1.0000 0.02051  0.87441  0.49135  Biso   1.000  O
  O3       1.0000 0.61372  0.49135  0.87441  Biso   1.000  O
  O4       1.0000 0.49136  0.61373  0.02050  Biso   1.000  O
  O5       1.0000 0.61373  0.87441  0.02050  Biso   1.000  O
  O6       1.0000 0.49135  0.02050  0.87441  Biso   1.000  O
  O7       1.0000 0.87441  0.61372  0.49136  Biso   1.000  O
  O8       1.0000 0.02051  0.49136  0.61372  Biso   1.000  O
  O9       1.0000 0.02050  0.61373  0.87442  Biso   1.000  O
  O10      1.0000 0.87441  0.49135  0.02050  Biso   1.000  O
  O11      1.0000 0.49136  0.87442  0.61373  Biso   1.000  O
  O12      1.0000 0.61373  0.02050  0.49135  Biso   1.000  O
  O13      1.0000 0.12558  0.97949  0.50865  Biso   1.000  O
  O14      1.0000 0.97950  0.12559  0.38627  Biso   1.000  O
  O15      1.0000 0.38628  0.50865  0.97949  Biso   1.000  O
  O16      1.0000 0.50864  0.38627  0.12559  Biso   1.000  O
  O17      1.0000 0.38627  0.12559  0.50865  Biso   1.000  O
  O18      1.0000 0.50864  0.97950  0.38627  Biso   1.000  O
  O19      1.0000 0.12559  0.38627  0.97950  Biso   1.000  O
  O20      1.0000 0.97949  0.50865  0.12559  Biso   1.000  O
  O21      1.0000 0.97950  0.38627  0.50865  Biso   1.000  O
  O22      1.0000 0.12558  0.50865  0.38627  Biso   1.000  O
  O23      1.0000 0.50865  0.12559  0.97950  Biso   1.000  O
  O24      1.0000 0.38627  0.97950  0.12559  Biso   1.000  O
  O25      1.0000 0.12559  0.97950  0.38627  Biso   1.000  O
  O26      1.0000 0.97949  0.12559  0.50865  Biso   1.000  O
  O27      1.0000 0.38628  0.50865  0.12559  Biso   1.000  O
  O28      1.0000 0.50864  0.38627  0.97950  Biso   1.000  O
  O29      1.0000 0.38627  0.12559  0.97950  Biso   1.000  O
  O30      1.0000 0.50865  0.97950  0.12559  Biso   1.000  O
  O31      1.0000 0.12559  0.38628  0.50864  Biso   1.000  O
  O32      1.0000 0.97949  0.50864  0.38627  Biso   1.000  O
  O33      1.0000 0.97950  0.38627  0.12558  Biso   1.000  O
  O34      1.0000 0.12559  0.50865  0.97950  Biso   1.000  O
  O35      1.0000 0.50864  0.12558  0.38627  Biso   1.000  O
  O36      1.0000 0.38627  0.97950  0.50864  Biso   1.000  O
  O37      1.0000 0.87441  0.02051  0.49135  Biso   1.000  O
  O38      1.0000 0.02050  0.87441  0.61373  Biso   1.000  O
  O39      1.0000 0.61372  0.49135  0.02051  Biso   1.000  O
  O40      1.0000 0.49136  0.61373  0.87441  Biso   1.000  O
  O41      1.0000 0.61372  0.87441  0.49135  Biso   1.000  O
  O42      1.0000 0.49136  0.02050  0.61373  Biso   1.000  O
  O43      1.0000 0.87441  0.61373  0.02050  Biso   1.000  O
  O44      1.0000 0.02051  0.49135  0.87441  Biso   1.000  O
  O45      1.0000 0.02050  0.61373  0.49135  Biso   1.000  O
  O46      1.0000 0.87442  0.49135  0.61373  Biso   1.000  O
  O47      1.0000 0.49136  0.87441  0.02050  Biso   1.000  O
  O48      1.0000 0.61373  0.02050  0.87441  Biso   1.000  O
  C1       1.0000 0.70015  0.02970  0.70015  Biso   1.000  C
  C2       1.0000 0.02970  0.70015  0.56999  Biso   1.000  C
  C3       1.0000 0.70015  0.56999  0.70015  Biso   1.000  C
  C4       1.0000 0.56999  0.70015  0.02970  Biso   1.000  C
  C5       1.0000 0.70015  0.70015  0.02970  Biso   1.000  C
  C6       1.0000 0.57000  0.02970  0.70015  Biso   1.000  C
  C7       1.0000 0.70015  0.70015  0.56999  Biso   1.000  C
  C8       1.0000 0.02970  0.56999  0.70015  Biso   1.000  C
  C9       1.0000 0.02970  0.70015  0.70015  Biso   1.000  C
  C10      1.0000 0.70015  0.56999  0.02970  Biso   1.000  C
  C11      1.0000 0.57000  0.70015  0.70015  Biso   1.000  C
  C12      1.0000 0.70015  0.02970  0.56999  Biso   1.000  C
  C13      1.0000 0.29985  0.97030  0.43001  Biso   1.000  C
  C14      1.0000 0.97030  0.29985  0.29985  Biso   1.000  C
  C15      1.0000 0.29985  0.43001  0.97030  Biso   1.000  C
  C16      1.0000 0.43000  0.29985  0.29985  Biso   1.000  C
  C17      1.0000 0.29985  0.29985  0.43001  Biso   1.000  C
  C18      1.0000 0.43000  0.97030  0.29985  Biso   1.000  C
  C19      1.0000 0.29985  0.29985  0.97030  Biso   1.000  C
  C20      1.0000 0.97030  0.43001  0.29985  Biso   1.000  C
  C21      1.0000 0.97030  0.29985  0.43001  Biso   1.000  C
  C22      1.0000 0.29985  0.43001  0.29985  Biso   1.000  C
  C23      1.0000 0.43001  0.29985  0.97030  Biso   1.000  C
  C24      1.0000 0.29985  0.97030  0.29985  Biso   1.000  C
  C25      1.0000 0.83775  0.02383  0.56921  Biso   1.000  C
  C26      1.0000 0.02383  0.83775  0.56921  Biso   1.000  C
  C27      1.0000 0.56921  0.56921  0.83775  Biso   1.000  C
  C28      1.0000 0.56921  0.56921  0.02383  Biso   1.000  C
  C29      1.0000 0.56921  0.83775  0.02383  Biso   1.000  C
  C30      1.0000 0.56921  0.02383  0.83775  Biso   1.000  C
  C31      1.0000 0.83775  0.56921  0.56921  Biso   1.000  C
  C32      1.0000 0.02383  0.56921  0.56921  Biso   1.000  C
  C33      1.0000 0.02383  0.56921  0.83775  Biso   1.000  C
  C34      1.0000 0.83775  0.56921  0.02383  Biso   1.000  C
  C35      1.0000 0.56921  0.83775  0.56921  Biso   1.000  C
  C36      1.0000 0.56921  0.02383  0.56921  Biso   1.000  C
  C37      1.0000 0.16225  0.97617  0.43079  Biso   1.000  C
  C38      1.0000 0.97617  0.16225  0.43079  Biso   1.000  C
  C39      1.0000 0.43079  0.43079  0.97617  Biso   1.000  C
  C40      1.0000 0.43079  0.43079  0.16225  Biso   1.000  C
  C41      1.0000 0.43079  0.16225  0.43079  Biso   1.000  C
  C42      1.0000 0.43079  0.97617  0.43079  Biso   1.000  C
  C43      1.0000 0.16225  0.43079  0.97617  Biso   1.000  C
  C44      1.0000 0.97617  0.43079  0.16225  Biso   1.000  C
  C45      1.0000 0.97617  0.43079  0.43079  Biso   1.000  C
  C46      1.0000 0.16225  0.43079  0.43079  Biso   1.000  C
  C47      1.0000 0.43079  0.16225  0.97617  Biso   1.000  C
  C48      1.0000 0.43079  0.97617  0.16225  Biso   1.000  C
  C49      1.0000 0.74340  0.02963  0.61348  Biso   1.000  C
  C50      1.0000 0.02963  0.74340  0.61348  Biso   1.000  C
  C51      1.0000 0.61348  0.61348  0.74340  Biso   1.000  C
  C52      1.0000 0.61348  0.61348  0.02963  Biso   1.000  C
  C53      1.0000 0.61348  0.74340  0.02963  Biso   1.000  C
  C54      1.0000 0.61348  0.02963  0.74340  Biso   1.000  C
  C55      1.0000 0.74340  0.61348  0.61348  Biso   1.000  C
  C56      1.0000 0.02963  0.61348  0.61348  Biso   1.000  C
  C57      1.0000 0.02963  0.61348  0.74340  Biso   1.000  C
  C58      1.0000 0.74340  0.61348  0.02963  Biso   1.000  C
  C59      1.0000 0.61348  0.74340  0.61348  Biso   1.000  C
  C60      1.0000 0.61348  0.02963  0.61348  Biso   1.000  C
  C61      1.0000 0.25660  0.97037  0.38652  Biso   1.000  C
  C62      1.0000 0.97037  0.25660  0.38652  Biso   1.000  C
  C63      1.0000 0.38652  0.38652  0.97037  Biso   1.000  C
  C64      1.0000 0.38652  0.38652  0.25659  Biso   1.000  C
  C65      1.0000 0.38652  0.25660  0.38652  Biso   1.000  C
  C66      1.0000 0.38652  0.97037  0.38652  Biso   1.000  C
  C67      1.0000 0.25660  0.38652  0.97037  Biso   1.000  C
  C68      1.0000 0.97037  0.38652  0.25660  Biso   1.000  C
  C69      1.0000 0.97037  0.38652  0.38652  Biso   1.000  C
  C70      1.0000 0.25660  0.38652  0.38652  Biso   1.000  C
  C71      1.0000 0.38652  0.25660  0.97037  Biso   1.000  C
  C72      1.0000 0.38652  0.97037  0.25659  Biso   1.000  C
  H1       1.0000 0.73462  0.02808  0.73461  Biso   1.000  H
  H2       1.0000 0.02809  0.73462  0.50268  Biso   1.000  H
  H3       1.0000 0.73462  0.50268  0.73462  Biso   1.000  H
  H4       1.0000 0.50269  0.73461  0.02808  Biso   1.000  H
  H5       1.0000 0.73461  0.73462  0.02808  Biso   1.000  H
  H6       1.0000 0.50269  0.02808  0.73462  Biso   1.000  H
  H7       1.0000 0.73462  0.73461  0.50269  Biso   1.000  H
  H8       1.0000 0.02809  0.50269  0.73462  Biso   1.000  H
  H9       1.0000 0.02808  0.73462  0.73462  Biso   1.000  H
  H10      1.0000 0.73462  0.50268  0.02808  Biso   1.000  H
  H11      1.0000 0.50269  0.73462  0.73462  Biso   1.000  H
  H12      1.0000 0.73462  0.02808  0.50268  Biso   1.000  H
  H13      1.0000 0.26538  0.97191  0.49732  Biso   1.000  H
  H14      1.0000 0.97192  0.26538  0.26538  Biso   1.000  H
  H15      1.0000 0.26538  0.49732  0.97191  Biso   1.000  H
  H16      1.0000 0.49731  0.26538  0.26538  Biso   1.000  H
  H17      1.0000 0.26538  0.26538  0.49731  Biso   1.000  H
  H18      1.0000 0.49732  0.97191  0.26538  Biso   1.000  H
  H19      1.0000 0.26539  0.26538  0.97191  Biso   1.000  H
  H20      1.0000 0.97191  0.49731  0.26538  Biso   1.000  H
  H21      1.0000 0.97191  0.26538  0.49732  Biso   1.000  H
  H22      1.0000 0.26538  0.49732  0.26538  Biso   1.000  H
  H23      1.0000 0.49731  0.26538  0.97191  Biso   1.000  H
  H24      1.0000 0.26538  0.97191  0.26538  Biso   1.000  H
  Cu1      1.0000 1.00000  1.00000  0.56520  Biso   1.000  Cu
  Cu2      1.0000 0.56519  0.43480  0.00000  Biso   1.000  Cu
  Cu3      1.0000 0.56520  0.00000  0.00000  Biso   1.000  Cu
  Cu4      1.0000 0.99999  0.56520  0.43480  Biso   1.000  Cu
  Cu5      1.0000 1.00000  0.56520  0.00000  Biso   1.000  Cu
  Cu6      1.0000 0.56520  1.00000  0.43480  Biso   1.000  Cu
  Cu7      1.0000 0.00000  0.00000  0.43480  Biso   1.000  Cu
  Cu8      1.0000 0.43481  0.56520  1.00000  Biso   1.000  Cu
  Cu9      1.0000 0.43480  0.00000  0.00000  Biso   1.000  Cu
  Cu10     1.0000 0.00001  0.43480  0.56520  Biso   1.000  Cu
  Cu11     1.0000 0.00000  0.43480  1.00000  Biso   1.000  Cu
  Cu12     1.0000 0.43480  0.00000  0.56520  Biso   1.000  Cu
