data_image0
_chemical_formula_structural       Cu6H18C48O24
_chemical_formula_sum              "Cu6 H18 C48 O24"
_cell_length_a       13.4807
_cell_length_b       13.4807
_cell_length_c       13.4807
_cell_angle_alpha    86.553
_cell_angle_beta     86.553
_cell_angle_gamma    86.553

_space_group_name_H-M_alt    "P 1"
_space_group_IT_number       1

loop_
  _space_group_symop_operation_xyz
  'x, y, z'

loop_
  _atom_site_type_symbol
  _atom_site_label
  _atom_site_symmetry_multiplicity
  _atom_site_fract_x
  _atom_site_fract_y
  _atom_site_fract_z
  _atom_site_occupancy
  Cu  Cu1       1.0  0.03950  0.61146  0.61146  1.0000
  Cu  Cu2       1.0  0.03950  0.03950  0.18342  1.0000
  Cu  Cu3       1.0  0.61146  0.03950  0.61146  1.0000
  Cu  Cu4       1.0  0.42804  0.00000  0.57196  1.0000
  Cu  Cu5       1.0  0.00000  0.00000  0.00000  1.0000
  Cu  Cu6       1.0  0.00000  0.42804  0.57196  1.0000
  H   H1        1.0  0.01965  0.46125  0.25151  1.0000
  H   H2        1.0  0.67955  0.01965  0.03321  1.0000
  H   H3        1.0  0.46125  0.67955  0.59161  1.0000
  H   H4        1.0  0.57825  0.01985  0.93191  1.0000
  H   H5        1.0  0.01985  0.35995  0.15021  1.0000
  H   H6        1.0  0.35995  0.57825  0.59181  1.0000
  H   H7        1.0  0.01985  0.57825  0.93191  1.0000
  H   H8        1.0  0.35995  0.01985  0.15021  1.0000
  H   H9        1.0  0.57825  0.35995  0.59181  1.0000
  H   H10       1.0  0.46125  0.01965  0.25151  1.0000
  H   H11       1.0  0.01965  0.67955  0.03321  1.0000
  H   H12       1.0  0.67955  0.46125  0.59161  1.0000
  H   H13       1.0  0.03555  0.74755  0.31951  1.0000
  H   H14       1.0  0.74755  0.03555  0.31951  1.0000
  H   H15       1.0  0.74755  0.74755  0.60751  1.0000
  H   H16       1.0  0.29195  0.00395  0.86391  1.0000
  H   H17       1.0  0.00395  0.29195  0.86391  1.0000
  H   H18       1.0  0.29195  0.29195  0.57591  1.0000
  C   C1        1.0  0.02709  0.56810  0.40926  1.0000
  C   C2        1.0  0.02197  0.52971  0.23077  1.0000
  C   C3        1.0  0.02692  0.59944  0.30126  1.0000
  C   C4        1.0  0.83730  0.02709  0.14006  1.0000
  C   C5        1.0  0.65881  0.02197  0.10167  1.0000
  C   C6        1.0  0.72930  0.02692  0.17140  1.0000
  C   C7        1.0  0.56810  0.83730  0.59905  1.0000
  C   C8        1.0  0.52971  0.65881  0.59393  1.0000
  C   C9        1.0  0.59944  0.72930  0.59888  1.0000
  C   C10       1.0  0.47140  0.01241  0.77416  1.0000
  C   C11       1.0  0.50979  0.01753  0.95265  1.0000
  C   C12       1.0  0.44006  0.01258  0.88216  1.0000
  C   C13       1.0  0.01241  0.20220  0.04336  1.0000
  C   C14       1.0  0.01753  0.38069  0.08175  1.0000
  C   C15       1.0  0.01258  0.31020  0.01202  1.0000
  C   C16       1.0  0.20220  0.47140  0.58437  1.0000
  C   C17       1.0  0.38069  0.50979  0.58949  1.0000
  C   C18       1.0  0.31020  0.44006  0.58454  1.0000
  C   C19       1.0  0.01241  0.47140  0.77416  1.0000
  C   C20       1.0  0.01753  0.50979  0.95265  1.0000
  C   C21       1.0  0.01258  0.44006  0.88216  1.0000
  C   C22       1.0  0.20220  0.01241  0.04336  1.0000
  C   C23       1.0  0.38069  0.01753  0.08175  1.0000
  C   C24       1.0  0.31020  0.01258  0.01202  1.0000
  C   C25       1.0  0.47140  0.20220  0.58437  1.0000
  C   C26       1.0  0.50979  0.38069  0.58949  1.0000
  C   C27       1.0  0.44006  0.31020  0.58454  1.0000
  C   C28       1.0  0.56810  0.02709  0.40926  1.0000
  C   C29       1.0  0.52971  0.02197  0.23077  1.0000
  C   C30       1.0  0.59944  0.02692  0.30126  1.0000
  C   C31       1.0  0.02709  0.83730  0.14006  1.0000
  C   C32       1.0  0.02197  0.65881  0.10167  1.0000
  C   C33       1.0  0.02692  0.72930  0.17140  1.0000
  C   C34       1.0  0.83730  0.56810  0.59905  1.0000
  C   C35       1.0  0.65881  0.52971  0.59393  1.0000
  C   C36       1.0  0.72930  0.59944  0.59888  1.0000
  C   C37       1.0  0.02031  0.55831  0.13027  1.0000
  C   C38       1.0  0.03063  0.69958  0.27154  1.0000
  C   C39       1.0  0.55831  0.02031  0.13027  1.0000
  C   C40       1.0  0.69958  0.03063  0.27154  1.0000
  C   C41       1.0  0.55831  0.55831  0.59227  1.0000
  C   C42       1.0  0.69958  0.69958  0.60259  1.0000
  C   C43       1.0  0.48119  0.01919  0.05315  1.0000
  C   C44       1.0  0.33992  0.00887  0.91188  1.0000
  C   C45       1.0  0.01919  0.48119  0.05315  1.0000
  C   C46       1.0  0.00887  0.33992  0.91188  1.0000
  C   C47       1.0  0.48119  0.48119  0.59115  1.0000
  C   C48       1.0  0.33992  0.33992  0.58083  1.0000
  O   O1        1.0  0.04277  0.63377  0.46750  1.0000
  O   O2        1.0  0.00985  0.47910  0.43321  1.0000
  O   O3        1.0  0.89554  0.04277  0.20573  1.0000
  O   O4        1.0  0.86125  0.00985  0.05106  1.0000
  O   O5        1.0  0.63377  0.89554  0.61473  1.0000
  O   O6        1.0  0.47910  0.86125  0.58181  1.0000
  O   O7        1.0  0.40573  0.99673  0.71592  1.0000
  O   O8        1.0  0.56040  0.02965  0.75021  1.0000
  O   O9        1.0  0.99673  0.14396  0.97769  1.0000
  O   O10       1.0  0.02965  0.17825  0.13236  1.0000
  O   O11       1.0  0.14396  0.40573  0.56869  1.0000
  O   O12       1.0  0.17825  0.56040  0.60161  1.0000
  O   O13       1.0  0.99673  0.40573  0.71592  1.0000
  O   O14       1.0  0.02965  0.56040  0.75021  1.0000
  O   O15       1.0  0.14396  0.99673  0.97769  1.0000
  O   O16       1.0  0.17825  0.02965  0.13236  1.0000
  O   O17       1.0  0.40573  0.14396  0.56869  1.0000
  O   O18       1.0  0.56040  0.17825  0.60161  1.0000
  O   O19       1.0  0.63377  0.04277  0.46750  1.0000
  O   O20       1.0  0.47910  0.00985  0.43321  1.0000
  O   O21       1.0  0.04277  0.89554  0.20573  1.0000
  O   O22       1.0  0.00985  0.86125  0.05106  1.0000
  O   O23       1.0  0.89554  0.63377  0.61473  1.0000
  O   O24       1.0  0.86125  0.47910  0.58181  1.0000
