data_image0
_cell_length_a       18.2512
_cell_length_b       18.2512
_cell_length_c       34.2802
_cell_angle_alpha    90
_cell_angle_beta     90
_cell_angle_gamma    120

_symmetry_space_group_name_H-M    "P 1"
_symmetry_int_tables_number       1

loop_
  _symmetry_equiv_pos_as_xyz
  'x, y, z'

loop_
  _atom_site_label
  _atom_site_occupancy
  _atom_site_fract_x
  _atom_site_fract_y
  _atom_site_fract_z
  _atom_site_thermal_displace_type
  _atom_site_B_iso_or_equiv
  _atom_site_type_symbol
  O1       1.0000 0.56267  0.58650  0.94869  Biso   1.000  O
  O2       1.0000 0.51966  0.62920  0.00140  Biso   1.000  O
  C1       1.0000 0.55150  0.63910  0.96718  Biso   1.000  C
  C2       1.0000 0.57540  0.72130  0.94869  Biso   1.000  C
  C3       1.0000 0.61050  0.74140  0.91132  Biso   1.000  C
  H1       1.0000 0.62410  0.70440  0.89890  Biso   1.000  H
  C4       1.0000 0.71000  0.80560  0.83630  Biso   1.000  C
  H2       1.0000 0.73670  0.78350  0.85410  Biso   1.000  H
  C5       1.0000 0.73080  0.81450  0.79720  Biso   1.000  C
  H3       1.0000 0.76960  0.79990  0.78780  Biso   1.000  H
  C6       1.0000 0.61200  0.85330  0.82340  Biso   1.000  C
  H4       1.0000 0.56670  0.86530  0.83250  Biso   1.000  H
  C7       1.0000 0.63570  0.77750  0.78370  Biso   1.000  C
  O3       1.0000 0.41350  0.97617  0.94869  Biso   1.000  O
  O4       1.0000 0.37080  0.89046  0.00140  Biso   1.000  O
  C8       1.0000 0.36090  0.91240  0.96718  Biso   1.000  C
  C9       1.0000 0.27870  0.85410  0.94869  Biso   1.000  C
  C10      1.0000 0.25860  0.86910  0.91132  Biso   1.000  C
  H5       1.0000 0.29560  0.91970  0.89890  Biso   1.000  H
  C11      1.0000 0.19440  0.90440  0.83630  Biso   1.000  C
  H6       1.0000 0.21650  0.95320  0.85410  Biso   1.000  H
  C12      1.0000 0.18550  0.91630  0.79720  Biso   1.000  C
  H7       1.0000 0.20010  0.96970  0.78780  Biso   1.000  H
  C13      1.0000 0.14670  0.75870  0.82340  Biso   1.000  C
  H8       1.0000 0.13470  0.70140  0.83250  Biso   1.000  H
  C14      1.0000 0.22250  0.85820  0.78370  Biso   1.000  C
  O5       1.0000 0.02383  0.43733  0.94869  Biso   1.000  O
  O6       1.0000 0.10954  0.48034  0.00140  Biso   1.000  O
  C15      1.0000 0.08760  0.44850  0.96718  Biso   1.000  C
  C16      1.0000 0.14590  0.42460  0.94869  Biso   1.000  C
  C17      1.0000 0.13090  0.38950  0.91132  Biso   1.000  C
  H9       1.0000 0.08030  0.37590  0.89890  Biso   1.000  H
  C18      1.0000 0.09560  0.29000  0.83630  Biso   1.000  C
  H10      1.0000 0.04680  0.26330  0.85410  Biso   1.000  H
  C19      1.0000 0.08370  0.26920  0.79720  Biso   1.000  C
  H11      1.0000 0.03030  0.23040  0.78780  Biso   1.000  H
  C20      1.0000 0.24130  0.38800  0.82340  Biso   1.000  C
  H12      1.0000 0.29860  0.43330  0.83250  Biso   1.000  H
  C21      1.0000 0.14180  0.36430  0.78370  Biso   1.000  C
  O7       1.0000 0.43733  0.41350  0.44869  Biso   1.000  O
  O8       1.0000 0.48034  0.37080  0.50140  Biso   1.000  O
  C22      1.0000 0.44850  0.36090  0.46718  Biso   1.000  C
  C23      1.0000 0.42460  0.27870  0.44869  Biso   1.000  C
  C24      1.0000 0.38950  0.25860  0.41132  Biso   1.000  C
  H13      1.0000 0.37590  0.29560  0.39890  Biso   1.000  H
  C25      1.0000 0.29000  0.19440  0.33630  Biso   1.000  C
  H14      1.0000 0.26330  0.21650  0.35410  Biso   1.000  H
  C26      1.0000 0.26920  0.18550  0.29720  Biso   1.000  C
  H15      1.0000 0.23040  0.20010  0.28780  Biso   1.000  H
  C27      1.0000 0.38800  0.14670  0.32340  Biso   1.000  C
  H16      1.0000 0.43330  0.13470  0.33250  Biso   1.000  H
  C28      1.0000 0.36430  0.22250  0.28370  Biso   1.000  C
  O9       1.0000 0.58650  0.02383  0.44869  Biso   1.000  O
  O10      1.0000 0.62920  0.10954  0.50140  Biso   1.000  O
  C29      1.0000 0.63910  0.08760  0.46718  Biso   1.000  C
  C30      1.0000 0.72130  0.14590  0.44869  Biso   1.000  C
  C31      1.0000 0.74140  0.13090  0.41132  Biso   1.000  C
  H17      1.0000 0.70440  0.08030  0.39890  Biso   1.000  H
  C32      1.0000 0.80560  0.09560  0.33630  Biso   1.000  C
  H18      1.0000 0.78350  0.04680  0.35410  Biso   1.000  H
  C33      1.0000 0.81450  0.08370  0.29720  Biso   1.000  C
  H19      1.0000 0.79990  0.03030  0.28780  Biso   1.000  H
  C34      1.0000 0.85330  0.24130  0.32340  Biso   1.000  C
  H20      1.0000 0.86530  0.29860  0.33250  Biso   1.000  H
  C35      1.0000 0.77750  0.14180  0.28370  Biso   1.000  C
  O11      1.0000 0.97617  0.56267  0.44869  Biso   1.000  O
  O12      1.0000 0.89046  0.51966  0.50140  Biso   1.000  O
  C36      1.0000 0.91240  0.55150  0.46718  Biso   1.000  C
  C37      1.0000 0.85410  0.57540  0.44869  Biso   1.000  C
  C38      1.0000 0.86910  0.61050  0.41132  Biso   1.000  C
  H21      1.0000 0.91970  0.62410  0.39890  Biso   1.000  H
  C39      1.0000 0.90440  0.71000  0.33630  Biso   1.000  C
  H22      1.0000 0.95320  0.73670  0.35410  Biso   1.000  H
  C40      1.0000 0.91630  0.73080  0.29720  Biso   1.000  C
  H23      1.0000 0.96970  0.76960  0.28780  Biso   1.000  H
  C41      1.0000 0.75870  0.61200  0.32340  Biso   1.000  C
  H24      1.0000 0.70140  0.56670  0.33250  Biso   1.000  H
  C42      1.0000 0.85820  0.63570  0.28370  Biso   1.000  C
  O13      1.0000 0.58650  0.56267  0.05131  Biso   1.000  O
  O14      1.0000 0.62920  0.51966  0.99860  Biso   1.000  O
  C43      1.0000 0.63910  0.55150  0.03282  Biso   1.000  C
  C44      1.0000 0.72130  0.57540  0.05131  Biso   1.000  C
  C45      1.0000 0.74140  0.61050  0.08868  Biso   1.000  C
  H25      1.0000 0.70440  0.62410  0.10110  Biso   1.000  H
  C46      1.0000 0.80560  0.71000  0.16370  Biso   1.000  C
  H26      1.0000 0.78350  0.73670  0.14590  Biso   1.000  H
  C47      1.0000 0.81450  0.73080  0.20280  Biso   1.000  C
  H27      1.0000 0.79990  0.76960  0.21220  Biso   1.000  H
  C48      1.0000 0.85330  0.61200  0.17660  Biso   1.000  C
  H28      1.0000 0.86530  0.56670  0.16750  Biso   1.000  H
  C49      1.0000 0.77750  0.63570  0.21630  Biso   1.000  C
  O15      1.0000 0.97617  0.41350  0.05131  Biso   1.000  O
  O16      1.0000 0.89046  0.37080  0.99860  Biso   1.000  O
  C50      1.0000 0.91240  0.36090  0.03282  Biso   1.000  C
  C51      1.0000 0.85410  0.27870  0.05131  Biso   1.000  C
  C52      1.0000 0.86910  0.25860  0.08868  Biso   1.000  C
  H29      1.0000 0.91970  0.29560  0.10110  Biso   1.000  H
  C53      1.0000 0.90440  0.19440  0.16370  Biso   1.000  C
  H30      1.0000 0.95320  0.21650  0.14590  Biso   1.000  H
  C54      1.0000 0.91630  0.18550  0.20280  Biso   1.000  C
  H31      1.0000 0.96970  0.20010  0.21220  Biso   1.000  H
  C55      1.0000 0.75870  0.14670  0.17660  Biso   1.000  C
  H32      1.0000 0.70140  0.13470  0.16750  Biso   1.000  H
  C56      1.0000 0.85820  0.22250  0.21630  Biso   1.000  C
  O17      1.0000 0.43733  0.02383  0.05131  Biso   1.000  O
  O18      1.0000 0.48034  0.10954  0.99860  Biso   1.000  O
  C57      1.0000 0.44850  0.08760  0.03282  Biso   1.000  C
  C58      1.0000 0.42460  0.14590  0.05131  Biso   1.000  C
  C59      1.0000 0.38950  0.13090  0.08868  Biso   1.000  C
  H33      1.0000 0.37590  0.08030  0.10110  Biso   1.000  H
  C60      1.0000 0.29000  0.09560  0.16370  Biso   1.000  C
  H34      1.0000 0.26330  0.04680  0.14590  Biso   1.000  H
  C61      1.0000 0.26920  0.08370  0.20280  Biso   1.000  C
  H35      1.0000 0.23040  0.03030  0.21220  Biso   1.000  H
  C62      1.0000 0.38800  0.24130  0.17660  Biso   1.000  C
  H36      1.0000 0.43330  0.29860  0.16750  Biso   1.000  H
  C63      1.0000 0.36430  0.14180  0.21630  Biso   1.000  C
  O19      1.0000 0.41350  0.43733  0.55131  Biso   1.000  O
  O20      1.0000 0.37080  0.48034  0.49860  Biso   1.000  O
  C64      1.0000 0.36090  0.44850  0.53282  Biso   1.000  C
  C65      1.0000 0.27870  0.42460  0.55131  Biso   1.000  C
  C66      1.0000 0.25860  0.38950  0.58868  Biso   1.000  C
  H37      1.0000 0.29560  0.37590  0.60110  Biso   1.000  H
  C67      1.0000 0.19440  0.29000  0.66370  Biso   1.000  C
  H38      1.0000 0.21650  0.26330  0.64590  Biso   1.000  H
  C68      1.0000 0.18550  0.26920  0.70280  Biso   1.000  C
  H39      1.0000 0.20010  0.23040  0.71220  Biso   1.000  H
  C69      1.0000 0.14670  0.38800  0.67660  Biso   1.000  C
  H40      1.0000 0.13470  0.43330  0.66750  Biso   1.000  H
  C70      1.0000 0.22250  0.36430  0.71630  Biso   1.000  C
  O21      1.0000 0.02383  0.58650  0.55131  Biso   1.000  O
  O22      1.0000 0.10954  0.62920  0.49860  Biso   1.000  O
  C71      1.0000 0.08760  0.63910  0.53282  Biso   1.000  C
  C72      1.0000 0.14590  0.72130  0.55131  Biso   1.000  C
  C73      1.0000 0.13090  0.74140  0.58868  Biso   1.000  C
  H41      1.0000 0.08030  0.70440  0.60110  Biso   1.000  H
  C74      1.0000 0.09560  0.80560  0.66370  Biso   1.000  C
  H42      1.0000 0.04680  0.78350  0.64590  Biso   1.000  H
  C75      1.0000 0.08370  0.81450  0.70280  Biso   1.000  C
  H43      1.0000 0.03030  0.79990  0.71220  Biso   1.000  H
  C76      1.0000 0.24130  0.85330  0.67660  Biso   1.000  C
  H44      1.0000 0.29860  0.86530  0.66750  Biso   1.000  H
  C77      1.0000 0.14180  0.77750  0.71630  Biso   1.000  C
  O23      1.0000 0.56267  0.97617  0.55131  Biso   1.000  O
  O24      1.0000 0.51966  0.89046  0.49860  Biso   1.000  O
  C78      1.0000 0.55150  0.91240  0.53282  Biso   1.000  C
  C79      1.0000 0.57540  0.85410  0.55131  Biso   1.000  C
  C80      1.0000 0.61050  0.86910  0.58868  Biso   1.000  C
  H45      1.0000 0.62410  0.91970  0.60110  Biso   1.000  H
  C81      1.0000 0.71000  0.90440  0.66370  Biso   1.000  C
  H46      1.0000 0.73670  0.95320  0.64590  Biso   1.000  H
  C82      1.0000 0.73080  0.91630  0.70280  Biso   1.000  C
  H47      1.0000 0.76960  0.96970  0.71220  Biso   1.000  H
  C83      1.0000 0.61200  0.75870  0.67660  Biso   1.000  C
  H48      1.0000 0.56670  0.70140  0.66750  Biso   1.000  H
  C84      1.0000 0.63570  0.85820  0.71630  Biso   1.000  C
  O25      1.0000 0.43733  0.41350  0.05131  Biso   1.000  O
  O26      1.0000 0.48034  0.37080  0.99860  Biso   1.000  O
  C85      1.0000 0.44850  0.36090  0.03282  Biso   1.000  C
  C86      1.0000 0.42460  0.27870  0.05131  Biso   1.000  C
  C87      1.0000 0.38950  0.25860  0.08868  Biso   1.000  C
  H49      1.0000 0.37590  0.29560  0.10110  Biso   1.000  H
  C88      1.0000 0.29000  0.19440  0.16370  Biso   1.000  C
  H50      1.0000 0.26330  0.21650  0.14590  Biso   1.000  H
  C89      1.0000 0.26920  0.18550  0.20280  Biso   1.000  C
  H51      1.0000 0.23040  0.20010  0.21220  Biso   1.000  H
  C90      1.0000 0.38800  0.14670  0.17660  Biso   1.000  C
  H52      1.0000 0.43330  0.13470  0.16750  Biso   1.000  H
  C91      1.0000 0.36430  0.22250  0.21630  Biso   1.000  C
  O27      1.0000 0.58650  0.02383  0.05131  Biso   1.000  O
  O28      1.0000 0.62920  0.10954  0.99860  Biso   1.000  O
  C92      1.0000 0.63910  0.08760  0.03282  Biso   1.000  C
  C93      1.0000 0.72130  0.14590  0.05131  Biso   1.000  C
  C94      1.0000 0.74140  0.13090  0.08868  Biso   1.000  C
  H53      1.0000 0.70440  0.08030  0.10110  Biso   1.000  H
  C95      1.0000 0.80560  0.09560  0.16370  Biso   1.000  C
  H54      1.0000 0.78350  0.04680  0.14590  Biso   1.000  H
  C96      1.0000 0.81450  0.08370  0.20280  Biso   1.000  C
  H55      1.0000 0.79990  0.03030  0.21220  Biso   1.000  H
  C97      1.0000 0.85330  0.24130  0.17660  Biso   1.000  C
  H56      1.0000 0.86530  0.29860  0.16750  Biso   1.000  H
  C98      1.0000 0.77750  0.14180  0.21630  Biso   1.000  C
  O29      1.0000 0.97617  0.56267  0.05131  Biso   1.000  O
  O30      1.0000 0.89046  0.51966  0.99860  Biso   1.000  O
  C99      1.0000 0.91240  0.55150  0.03282  Biso   1.000  C
  C100     1.0000 0.85410  0.57540  0.05131  Biso   1.000  C
  C101     1.0000 0.86910  0.61050  0.08868  Biso   1.000  C
  H57      1.0000 0.91970  0.62410  0.10110  Biso   1.000  H
  C102     1.0000 0.90440  0.71000  0.16370  Biso   1.000  C
  H58      1.0000 0.95320  0.73670  0.14590  Biso   1.000  H
  C103     1.0000 0.91630  0.73080  0.20280  Biso   1.000  C
  H59      1.0000 0.96970  0.76960  0.21220  Biso   1.000  H
  C104     1.0000 0.75870  0.61200  0.17660  Biso   1.000  C
  H60      1.0000 0.70140  0.56670  0.16750  Biso   1.000  H
  C105     1.0000 0.85820  0.63570  0.21630  Biso   1.000  C
  O31      1.0000 0.56267  0.58650  0.55131  Biso   1.000  O
  O32      1.0000 0.51966  0.62920  0.49860  Biso   1.000  O
  C106     1.0000 0.55150  0.63910  0.53282  Biso   1.000  C
  C107     1.0000 0.57540  0.72130  0.55131  Biso   1.000  C
  C108     1.0000 0.61050  0.74140  0.58868  Biso   1.000  C
  H61      1.0000 0.62410  0.70440  0.60110  Biso   1.000  H
  C109     1.0000 0.71000  0.80560  0.66370  Biso   1.000  C
  H62      1.0000 0.73670  0.78350  0.64590  Biso   1.000  H
  C110     1.0000 0.73080  0.81450  0.70280  Biso   1.000  C
  H63      1.0000 0.76960  0.79990  0.71220  Biso   1.000  H
  C111     1.0000 0.61200  0.85330  0.67660  Biso   1.000  C
  H64      1.0000 0.56670  0.86530  0.66750  Biso   1.000  H
  C112     1.0000 0.63570  0.77750  0.71630  Biso   1.000  C
  O33      1.0000 0.41350  0.97617  0.55131  Biso   1.000  O
  O34      1.0000 0.37080  0.89046  0.49860  Biso   1.000  O
  C113     1.0000 0.36090  0.91240  0.53282  Biso   1.000  C
  C114     1.0000 0.27870  0.85410  0.55131  Biso   1.000  C
  C115     1.0000 0.25860  0.86910  0.58868  Biso   1.000  C
  H65      1.0000 0.29560  0.91970  0.60110  Biso   1.000  H
  C116     1.0000 0.19440  0.90440  0.66370  Biso   1.000  C
  H66      1.0000 0.21650  0.95320  0.64590  Biso   1.000  H
  C117     1.0000 0.18550  0.91630  0.70280  Biso   1.000  C
  H67      1.0000 0.20010  0.96970  0.71220  Biso   1.000  H
  C118     1.0000 0.14670  0.75870  0.67660  Biso   1.000  C
  H68      1.0000 0.13470  0.70140  0.66750  Biso   1.000  H
  C119     1.0000 0.22250  0.85820  0.71630  Biso   1.000  C
  O35      1.0000 0.02383  0.43733  0.55131  Biso   1.000  O
  O36      1.0000 0.10954  0.48034  0.49860  Biso   1.000  O
  C120     1.0000 0.08760  0.44850  0.53282  Biso   1.000  C
  C121     1.0000 0.14590  0.42460  0.55131  Biso   1.000  C
  C122     1.0000 0.13090  0.38950  0.58868  Biso   1.000  C
  H69      1.0000 0.08030  0.37590  0.60110  Biso   1.000  H
  C123     1.0000 0.09560  0.29000  0.66370  Biso   1.000  C
  H70      1.0000 0.04680  0.26330  0.64590  Biso   1.000  H
  C124     1.0000 0.08370  0.26920  0.70280  Biso   1.000  C
  H71      1.0000 0.03030  0.23040  0.71220  Biso   1.000  H
  C125     1.0000 0.24130  0.38800  0.67660  Biso   1.000  C
  H72      1.0000 0.29860  0.43330  0.66750  Biso   1.000  H
  C126     1.0000 0.14180  0.36430  0.71630  Biso   1.000  C
  O37      1.0000 0.41350  0.43733  0.94869  Biso   1.000  O
  O38      1.0000 0.37080  0.48034  0.00140  Biso   1.000  O
  C127     1.0000 0.36090  0.44850  0.96718  Biso   1.000  C
  C128     1.0000 0.27870  0.42460  0.94869  Biso   1.000  C
  C129     1.0000 0.25860  0.38950  0.91132  Biso   1.000  C
  H73      1.0000 0.29560  0.37590  0.89890  Biso   1.000  H
  C130     1.0000 0.19440  0.29000  0.83630  Biso   1.000  C
  H74      1.0000 0.21650  0.26330  0.85410  Biso   1.000  H
  C131     1.0000 0.18550  0.26920  0.79720  Biso   1.000  C
  H75      1.0000 0.20010  0.23040  0.78780  Biso   1.000  H
  C132     1.0000 0.14670  0.38800  0.82340  Biso   1.000  C
  H76      1.0000 0.13470  0.43330  0.83250  Biso   1.000  H
  C133     1.0000 0.22250  0.36430  0.78370  Biso   1.000  C
  O39      1.0000 0.02383  0.58650  0.94869  Biso   1.000  O
  O40      1.0000 0.10954  0.62920  0.00140  Biso   1.000  O
  C134     1.0000 0.08760  0.63910  0.96718  Biso   1.000  C
  C135     1.0000 0.14590  0.72130  0.94869  Biso   1.000  C
  C136     1.0000 0.13090  0.74140  0.91132  Biso   1.000  C
  H77      1.0000 0.08030  0.70440  0.89890  Biso   1.000  H
  C137     1.0000 0.09560  0.80560  0.83630  Biso   1.000  C
  H78      1.0000 0.04680  0.78350  0.85410  Biso   1.000  H
  C138     1.0000 0.08370  0.81450  0.79720  Biso   1.000  C
  H79      1.0000 0.03030  0.79990  0.78780  Biso   1.000  H
  C139     1.0000 0.24130  0.85330  0.82340  Biso   1.000  C
  H80      1.0000 0.29860  0.86530  0.83250  Biso   1.000  H
  C140     1.0000 0.14180  0.77750  0.78370  Biso   1.000  C
  O41      1.0000 0.56267  0.97617  0.94869  Biso   1.000  O
  O42      1.0000 0.51966  0.89046  0.00140  Biso   1.000  O
  C141     1.0000 0.55150  0.91240  0.96718  Biso   1.000  C
  C142     1.0000 0.57540  0.85410  0.94869  Biso   1.000  C
  C143     1.0000 0.61050  0.86910  0.91132  Biso   1.000  C
  H81      1.0000 0.62410  0.91970  0.89890  Biso   1.000  H
  C144     1.0000 0.71000  0.90440  0.83630  Biso   1.000  C
  H82      1.0000 0.73670  0.95320  0.85410  Biso   1.000  H
  C145     1.0000 0.73080  0.91630  0.79720  Biso   1.000  C
  H83      1.0000 0.76960  0.96970  0.78780  Biso   1.000  H
  C146     1.0000 0.61200  0.75870  0.82340  Biso   1.000  C
  H84      1.0000 0.56670  0.70140  0.83250  Biso   1.000  H
  C147     1.0000 0.63570  0.85820  0.78370  Biso   1.000  C
  O43      1.0000 0.58650  0.56267  0.44869  Biso   1.000  O
  O44      1.0000 0.62920  0.51966  0.50140  Biso   1.000  O
  C148     1.0000 0.63910  0.55150  0.46718  Biso   1.000  C
  C149     1.0000 0.72130  0.57540  0.44869  Biso   1.000  C
  C150     1.0000 0.74140  0.61050  0.41132  Biso   1.000  C
  H85      1.0000 0.70440  0.62410  0.39890  Biso   1.000  H
  C151     1.0000 0.80560  0.71000  0.33630  Biso   1.000  C
  H86      1.0000 0.78350  0.73670  0.35410  Biso   1.000  H
  C152     1.0000 0.81450  0.73080  0.29720  Biso   1.000  C
  H87      1.0000 0.79990  0.76960  0.28780  Biso   1.000  H
  C153     1.0000 0.85330  0.61200  0.32340  Biso   1.000  C
  H88      1.0000 0.86530  0.56670  0.33250  Biso   1.000  H
  C154     1.0000 0.77750  0.63570  0.28370  Biso   1.000  C
  O45      1.0000 0.97617  0.41350  0.44869  Biso   1.000  O
  O46      1.0000 0.89046  0.37080  0.50140  Biso   1.000  O
  C155     1.0000 0.91240  0.36090  0.46718  Biso   1.000  C
  C156     1.0000 0.85410  0.27870  0.44869  Biso   1.000  C
  C157     1.0000 0.86910  0.25860  0.41132  Biso   1.000  C
  H89      1.0000 0.91970  0.29560  0.39890  Biso   1.000  H
  C158     1.0000 0.90440  0.19440  0.33630  Biso   1.000  C
  H90      1.0000 0.95320  0.21650  0.35410  Biso   1.000  H
  C159     1.0000 0.91630  0.18550  0.29720  Biso   1.000  C
  H91      1.0000 0.96970  0.20010  0.28780  Biso   1.000  H
  C160     1.0000 0.75870  0.14670  0.32340  Biso   1.000  C
  H92      1.0000 0.70140  0.13470  0.33250  Biso   1.000  H
  C161     1.0000 0.85820  0.22250  0.28370  Biso   1.000  C
  O47      1.0000 0.43733  0.02383  0.44869  Biso   1.000  O
  O48      1.0000 0.48034  0.10954  0.50140  Biso   1.000  O
  C162     1.0000 0.44850  0.08760  0.46718  Biso   1.000  C
  C163     1.0000 0.42460  0.14590  0.44869  Biso   1.000  C
  C164     1.0000 0.38950  0.13090  0.41132  Biso   1.000  C
  H93      1.0000 0.37590  0.08030  0.39890  Biso   1.000  H
  C165     1.0000 0.29000  0.09560  0.33630  Biso   1.000  C
  H94      1.0000 0.26330  0.04680  0.35410  Biso   1.000  H
  C166     1.0000 0.26920  0.08370  0.29720  Biso   1.000  C
  H95      1.0000 0.23040  0.03030  0.28780  Biso   1.000  H
  C167     1.0000 0.38800  0.24130  0.32340  Biso   1.000  C
  H96      1.0000 0.43330  0.29860  0.33250  Biso   1.000  H
  C168     1.0000 0.36430  0.14180  0.28370  Biso   1.000  C
  Cu1      1.0000 0.52528  0.47472  0.96903  Biso   1.000  Cu
  Cu2      1.0000 0.52528  0.05057  0.96903  Biso   1.000  Cu
  Cu3      1.0000 0.94943  0.47472  0.96903  Biso   1.000  Cu
  Cu4      1.0000 0.47472  0.52528  0.46903  Biso   1.000  Cu
  Cu5      1.0000 0.47472  0.94943  0.46903  Biso   1.000  Cu
  Cu6      1.0000 0.05057  0.52528  0.46903  Biso   1.000  Cu
  Cu7      1.0000 0.47472  0.52528  0.03097  Biso   1.000  Cu
  Cu8      1.0000 0.05057  0.52528  0.03097  Biso   1.000  Cu
  Cu9      1.0000 0.47472  0.94943  0.03097  Biso   1.000  Cu
  Cu10     1.0000 0.52528  0.47472  0.53097  Biso   1.000  Cu
  Cu11     1.0000 0.94943  0.47472  0.53097  Biso   1.000  Cu
  Cu12     1.0000 0.52528  0.05057  0.53097  Biso   1.000  Cu
  C169     1.0000 0.56060  0.78030  0.96635  Biso   1.000  C
  H97      1.0000 0.53920  0.76960  0.99160  Biso   1.000  H
  C170     1.0000 0.62520  0.81260  0.89250  Biso   1.000  C
  C171     1.0000 0.65420  0.82710  0.84892  Biso   1.000  C
  C172     1.0000 0.69240  0.84620  0.77132  Biso   1.000  C
  C173     1.0000 0.21970  0.78030  0.96635  Biso   1.000  C
  H98      1.0000 0.23040  0.76960  0.99160  Biso   1.000  H
  C174     1.0000 0.18740  0.81260  0.89250  Biso   1.000  C
  C175     1.0000 0.17290  0.82710  0.84892  Biso   1.000  C
  C176     1.0000 0.15380  0.84620  0.77132  Biso   1.000  C
  C177     1.0000 0.21970  0.43940  0.96635  Biso   1.000  C
  H99      1.0000 0.23040  0.46080  0.99160  Biso   1.000  H
  C178     1.0000 0.18740  0.37480  0.89250  Biso   1.000  C
  C179     1.0000 0.17290  0.34580  0.84892  Biso   1.000  C
  C180     1.0000 0.15380  0.30760  0.77132  Biso   1.000  C
  C181     1.0000 0.43940  0.21970  0.46635  Biso   1.000  C
  H100     1.0000 0.46080  0.23040  0.49160  Biso   1.000  H
  C182     1.0000 0.37480  0.18740  0.39250  Biso   1.000  C
  C183     1.0000 0.34580  0.17290  0.34892  Biso   1.000  C
  C184     1.0000 0.30760  0.15380  0.27132  Biso   1.000  C
  C185     1.0000 0.78030  0.21970  0.46635  Biso   1.000  C
  H101     1.0000 0.76960  0.23040  0.49160  Biso   1.000  H
  C186     1.0000 0.81260  0.18740  0.39250  Biso   1.000  C
  C187     1.0000 0.82710  0.17290  0.34892  Biso   1.000  C
  C188     1.0000 0.84620  0.15380  0.27132  Biso   1.000  C
  C189     1.0000 0.78030  0.56060  0.46635  Biso   1.000  C
  H102     1.0000 0.76960  0.53920  0.49160  Biso   1.000  H
  C190     1.0000 0.81260  0.62520  0.39250  Biso   1.000  C
  C191     1.0000 0.82710  0.65420  0.34892  Biso   1.000  C
  C192     1.0000 0.84620  0.69240  0.27132  Biso   1.000  C
  C193     1.0000 0.78030  0.56060  0.03365  Biso   1.000  C
  H103     1.0000 0.76960  0.53920  0.00840  Biso   1.000  H
  C194     1.0000 0.81260  0.62520  0.10750  Biso   1.000  C
  C195     1.0000 0.82710  0.65420  0.15108  Biso   1.000  C
  C196     1.0000 0.84620  0.69240  0.22868  Biso   1.000  C
  C197     1.0000 0.78030  0.21970  0.03365  Biso   1.000  C
  H104     1.0000 0.76960  0.23040  0.00840  Biso   1.000  H
  C198     1.0000 0.81260  0.18740  0.10750  Biso   1.000  C
  C199     1.0000 0.82710  0.17290  0.15108  Biso   1.000  C
  C200     1.0000 0.84620  0.15380  0.22868  Biso   1.000  C
  C201     1.0000 0.43940  0.21970  0.03365  Biso   1.000  C
  H105     1.0000 0.46080  0.23040  0.00840  Biso   1.000  H
  C202     1.0000 0.37480  0.18740  0.10750  Biso   1.000  C
  C203     1.0000 0.34580  0.17290  0.15108  Biso   1.000  C
  C204     1.0000 0.30760  0.15380  0.22868  Biso   1.000  C
  C205     1.0000 0.21970  0.43940  0.53365  Biso   1.000  C
  H106     1.0000 0.23040  0.46080  0.50840  Biso   1.000  H
  C206     1.0000 0.18740  0.37480  0.60750  Biso   1.000  C
  C207     1.0000 0.17290  0.34580  0.65108  Biso   1.000  C
  C208     1.0000 0.15380  0.30760  0.72868  Biso   1.000  C
  C209     1.0000 0.21970  0.78030  0.53365  Biso   1.000  C
  H107     1.0000 0.23040  0.76960  0.50840  Biso   1.000  H
  C210     1.0000 0.18740  0.81260  0.60750  Biso   1.000  C
  C211     1.0000 0.17290  0.82710  0.65108  Biso   1.000  C
  C212     1.0000 0.15380  0.84620  0.72868  Biso   1.000  C
  C213     1.0000 0.56060  0.78030  0.53365  Biso   1.000  C
  H108     1.0000 0.53920  0.76960  0.50840  Biso   1.000  H
  C214     1.0000 0.62520  0.81260  0.60750  Biso   1.000  C
  C215     1.0000 0.65420  0.82710  0.65108  Biso   1.000  C
  C216     1.0000 0.69240  0.84620  0.72868  Biso   1.000  C
  C217     1.0000 0.59120  0.71360  0.75000  Biso   1.000  C
  H109     1.0000 0.53040  0.69040  0.75000  Biso   1.000  H
  H110     1.0000 0.60430  0.66820  0.75000  Biso   1.000  H
  C218     1.0000 0.28640  0.87760  0.75000  Biso   1.000  C
  H111     1.0000 0.30960  0.84000  0.75000  Biso   1.000  H
  H112     1.0000 0.33180  0.93610  0.75000  Biso   1.000  H
  C219     1.0000 0.12240  0.40880  0.75000  Biso   1.000  C
  H113     1.0000 0.16000  0.46960  0.75000  Biso   1.000  H
  H114     1.0000 0.06390  0.39570  0.75000  Biso   1.000  H
  C220     1.0000 0.40880  0.28640  0.25000  Biso   1.000  C
  H115     1.0000 0.46960  0.30960  0.25000  Biso   1.000  H
  H116     1.0000 0.39570  0.33180  0.25000  Biso   1.000  H
  C221     1.0000 0.71360  0.12240  0.25000  Biso   1.000  C
  H117     1.0000 0.69040  0.16000  0.25000  Biso   1.000  H
  H118     1.0000 0.66820  0.06390  0.25000  Biso   1.000  H
  C222     1.0000 0.87760  0.59120  0.25000  Biso   1.000  C
  H119     1.0000 0.84000  0.53040  0.25000  Biso   1.000  H
  H120     1.0000 0.93610  0.60430  0.25000  Biso   1.000  H
  C223     1.0000 0.71360  0.59120  0.25000  Biso   1.000  C
  H121     1.0000 0.69040  0.53040  0.25000  Biso   1.000  H
  H122     1.0000 0.66820  0.60430  0.25000  Biso   1.000  H
  C224     1.0000 0.87760  0.28640  0.25000  Biso   1.000  C
  H123     1.0000 0.84000  0.30960  0.25000  Biso   1.000  H
  H124     1.0000 0.93610  0.33180  0.25000  Biso   1.000  H
  C225     1.0000 0.40880  0.12240  0.25000  Biso   1.000  C
  H125     1.0000 0.46960  0.16000  0.25000  Biso   1.000  H
  H126     1.0000 0.39570  0.06390  0.25000  Biso   1.000  H
  C226     1.0000 0.28640  0.40880  0.75000  Biso   1.000  C
  H127     1.0000 0.30960  0.46960  0.75000  Biso   1.000  H
  H128     1.0000 0.33180  0.39570  0.75000  Biso   1.000  H
  C227     1.0000 0.12240  0.71360  0.75000  Biso   1.000  C
  H129     1.0000 0.16000  0.69040  0.75000  Biso   1.000  H
  H130     1.0000 0.06390  0.66820  0.75000  Biso   1.000  H
  C228     1.0000 0.59120  0.87760  0.75000  Biso   1.000  C
  H131     1.0000 0.53040  0.84000  0.75000  Biso   1.000  H
  H132     1.0000 0.60430  0.93610  0.75000  Biso   1.000  H
