# generated using pymatgen
data_MgH24C40(NO4)2
_symmetry_space_group_name_H-M   'P 1'
_cell_length_a   15.72720000
_cell_length_b   23.55500000
_cell_length_c   23.55500000
_cell_angle_alpha   64.56170000
_cell_angle_beta   70.49800000
_cell_angle_gamma   70.49800000
_symmetry_Int_Tables_number   1
_chemical_formula_structural   MgH24C40(NO4)2
_chemical_formula_sum   'Mg1 H24 C40 N2 O8'
_cell_volume   7239.68504984
_cell_formula_units_Z   1
loop_
 _symmetry_equiv_pos_site_id
 _symmetry_equiv_pos_as_xyz
  1  'x, y, z'
loop_
 _atom_site_type_symbol
 _atom_site_label
 _atom_site_symmetry_multiplicity
 _atom_site_fract_x
 _atom_site_fract_y
 _atom_site_fract_z
 _atom_site_occupancy
  C  C0  1  0.18057000  0.23913000  0.54713000  1.0
  C  C1  1  0.14293000  0.18497000  0.57457000  1.0
  C  C2  1  0.17409000  0.35221000  0.52421000  1.0
  H  H3  1  0.00410000  0.33630000  0.59830000  1.0
  H  H4  1  0.24130000  0.23670000  0.52330000  1.0
  H  H5  1  0.17820000  0.14660000  0.56860000  1.0
  H  H6  1  0.04980000  0.13670000  0.73470000  1.0
  C  C7  1  0.03895000  0.09245000  0.60205000  1.0
  C  C8  1  0.04049000  0.11781000  0.53781000  1.0
  H  H9  1  0.02280000  0.16220000  0.51780000  1.0
  C  C10  1  0.06763000  0.07877000  0.50217000  1.0
  H  H11  1  0.06420000  0.09760000  0.45900000  1.0
  C  C12  1  0.06660000  0.02610000  0.63130000  1.0
  H  H13  1  0.06730000  0.00740000  0.67500000  1.0
  C  C14  1  0.10018000  0.01212000  0.52812000  1.0
  O  O15  1  0.74844000  0.03757000  0.91855000  1.0
  O  O16  1  0.85398000  0.06624000  0.93920000  1.0
  C  C17  1  0.09390000  0.98690000  0.59230000  1.0
  H  H18  1  0.10780000  0.94230000  0.61230000  1.0
  C  C19  1  0.96479000  0.11411000  0.70491000  1.0
  H  H20  1  0.94230000  0.24660000  0.64380000  1.0
  C  C21  1  0.99596000  0.12184000  0.74784000  1.0
  C  C22  1  0.94595000  0.10725000  0.81225000  1.0
  C  C23  1  0.84504000  0.06845000  0.78847000  1.0
  C  C24  1  0.89230000  0.08500000  0.72460000  1.0
  H  H25  1  0.96310000  0.11670000  0.84090000  1.0
  H  H26  1  0.79460000  0.04990000  0.80170000  1.0
  H  H27  1  0.87510000  0.07660000  0.69540000  1.0
  C  C28  1  0.87143000  0.07893000  0.83341000  1.0
  C  C29  1  0.81587000  0.05853000  0.90193000  1.0
  H  H30  1  0.43870000  0.90170000  0.16370000  1.0
  H  H31  1  0.50130000  0.97670000  0.26330000  1.0
  H  H32  1  0.42120000  0.76530000  0.36330000  1.0
  O  O33  1  0.60054000  0.99996000  0.15816000  1.0
  C  C34  1  0.12748000  0.29762000  0.55502000  1.0
  H  H35  1  0.14710000  0.80460000  0.42340000  1.0
  C  C36  1  0.05386000  0.18819000  0.61049000  1.0
  O  O37  1  0.25866000  0.34184000  0.50004000  1.0
  C  C38  1  0.35254000  0.88951000  0.31181000  1.0
  C  C39  1  0.36623000  0.88081000  0.25553000  1.0
  C  C40  1  0.43000000  0.90843000  0.20157000  1.0
  C  C41  1  0.48012000  0.94498000  0.20238000  1.0
  C  C42  1  0.46683000  0.95287000  0.26087000  1.0
  C  C43  1  0.40247000  0.92543000  0.31503000  1.0
  C  C44  1  0.55051000  0.97579000  0.14779000  1.0
  N  N45  1  0.01603000  0.13197000  0.63917000  1.0
  C  C46  1  0.28381000  0.79509000  0.38589000  1.0
  C  C47  1  0.36564000  0.75216000  0.37816000  1.0
  C  C48  1  0.28377000  0.66659000  0.42107000  1.0
  C  C49  1  0.36545000  0.68775000  0.39275000  1.0
  C  C50  1  0.20196000  0.71153000  0.43155000  1.0
  C  C51  1  0.20190000  0.77540000  0.41500000  1.0
  N  N52  1  0.28717000  0.86083000  0.36803000  1.0
  C  C53  1  0.23345000  0.89795000  0.40755000  1.0
  C  C54  1  0.19611000  0.96219000  0.38219000  1.0
  C  C55  1  0.14857000  0.99783000  0.42123000  1.0
  C  C56  1  0.14042000  0.97188000  0.48788000  1.0
  C  C57  1  0.17310000  0.90770000  0.51310000  1.0
  C  C58  1  0.22400000  0.86870000  0.47390000  1.0
  C  C59  1  0.27633000  0.59807000  0.44147000  1.0
  C  C60  1  0.00257000  0.24447000  0.61919000  1.0
  C  C61  1  0.04000000  0.29843000  0.59157000  1.0
  O  O62  1  0.20456000  0.58145000  0.46243000  1.0
  O  O63  1  0.35942000  0.56080000  0.43376000  1.0
  O  O64  1  0.55780000  0.97402000  0.09238000  1.0
  H  H65  1  0.39340000  0.93140000  0.35340000  1.0
  H  H66  1  0.33270000  0.85620000  0.25340000  1.0
  H  H67  1  0.42070000  0.65910000  0.38330000  1.0
  H  H68  1  0.14620000  0.69830000  0.45010000  1.0
  H  H69  1  0.12080000  0.04100000  0.40240000  1.0
  H  H70  1  0.20280000  0.98220000  0.33780000  1.0
  O  O71  1  0.12420000  0.40762000  0.52598000  1.0
  H  H72  1  0.16240000  0.88770000  0.55770000  1.0
  H  H73  1  0.24970000  0.82500000  0.49260000  1.0
  Mg  Mg74  1  0.16901000  0.49487000  0.49487000  1.0
