# generated using pymatgen
data_MgH24C40(NO4)2
_symmetry_space_group_name_H-M   'P 1'
_cell_length_a   15.72720000
_cell_length_b   23.55500000
_cell_length_c   23.55500000
_cell_angle_alpha   64.56170000
_cell_angle_beta   70.49800000
_cell_angle_gamma   70.49800000
_symmetry_Int_Tables_number   1
_chemical_formula_structural   MgH24C40(NO4)2
_chemical_formula_sum   'Mg1 H24 C40 N2 O8'
_cell_volume   7239.68504984
_cell_formula_units_Z   1
loop_
 _symmetry_equiv_pos_site_id
 _symmetry_equiv_pos_as_xyz
  1  'x, y, z'
loop_
 _atom_site_type_symbol
 _atom_site_label
 _atom_site_symmetry_multiplicity
 _atom_site_fract_x
 _atom_site_fract_y
 _atom_site_fract_z
 _atom_site_occupancy
  C  C0  1  0.06763000  0.50217000  0.07877000  1.0
  C  C1  1  0.10018000  0.52812000  0.01212000  1.0
  C  C2  1  0.14042000  0.48788000  0.97188000  1.0
  C  C3  1  0.06660000  0.63130000  0.02610000  1.0
  C  C4  1  0.14857000  0.42123000  0.99783000  1.0
  C  C5  1  0.17310000  0.51310000  0.90770000  1.0
  C  C6  1  0.22400000  0.47390000  0.86870000  1.0
  H  H7  1  0.33270000  0.25340000  0.85620000  1.0
  H  H8  1  0.20280000  0.33780000  0.98220000  1.0
  H  H9  1  0.39340000  0.35340000  0.93140000  1.0
  H  H10  1  0.16240000  0.55770000  0.88770000  1.0
  H  H11  1  0.24970000  0.49260000  0.82500000  1.0
  H  H12  1  0.42120000  0.36330000  0.76530000  1.0
  H  H13  1  0.14710000  0.42340000  0.80460000  1.0
  H  H14  1  0.42070000  0.38330000  0.65910000  1.0
  C  C15  1  0.96479000  0.70491000  0.11411000  1.0
  N  N16  1  0.01603000  0.63917000  0.13197000  1.0
  H  H17  1  0.00410000  0.59830000  0.33630000  1.0
  H  H18  1  0.24130000  0.52330000  0.23670000  1.0
  H  H19  1  0.17820000  0.56860000  0.14660000  1.0
  C  C20  1  0.89230000  0.72460000  0.08500000  1.0
  C  C21  1  0.99596000  0.74784000  0.12184000  1.0
  C  C22  1  0.94595000  0.81225000  0.10725000  1.0
  C  C23  1  0.84504000  0.78847000  0.06845000  1.0
  H  H24  1  0.04980000  0.73470000  0.13670000  1.0
  H  H25  1  0.02280000  0.51780000  0.16220000  1.0
  O  O26  1  0.12420000  0.52598000  0.40762000  1.0
  O  O27  1  0.25866000  0.50004000  0.34184000  1.0
  H  H28  1  0.06730000  0.67500000  0.00740000  1.0
  H  H29  1  0.06420000  0.45900000  0.09760000  1.0
  C  C30  1  0.81587000  0.90193000  0.05853000  1.0
  C  C31  1  0.46683000  0.26087000  0.95287000  1.0
  C  C32  1  0.40247000  0.31503000  0.92543000  1.0
  H  H33  1  0.94230000  0.64380000  0.24660000  1.0
  C  C34  1  0.14293000  0.57457000  0.18497000  1.0
  C  C35  1  0.35254000  0.31181000  0.88951000  1.0
  H  H36  1  0.96310000  0.84090000  0.11670000  1.0
  H  H37  1  0.79460000  0.80170000  0.04990000  1.0
  H  H38  1  0.87510000  0.69540000  0.07660000  1.0
  O  O39  1  0.74844000  0.91855000  0.03757000  1.0
  O  O40  1  0.85398000  0.93920000  0.06624000  1.0
  H  H41  1  0.12080000  0.40240000  0.04100000  1.0
  C  C42  1  0.17409000  0.52421000  0.35221000  1.0
  O  O43  1  0.20456000  0.46243000  0.58145000  1.0
  O  O44  1  0.35942000  0.43376000  0.56080000  1.0
  O  O45  1  0.55780000  0.09238000  0.97402000  1.0
  O  O46  1  0.60054000  0.15816000  0.99996000  1.0
  C  C47  1  0.36623000  0.25553000  0.88081000  1.0
  C  C48  1  0.20190000  0.41500000  0.77540000  1.0
  H  H49  1  0.10780000  0.61230000  0.94230000  1.0
  C  C50  1  0.03895000  0.60205000  0.09245000  1.0
  C  C51  1  0.09390000  0.59230000  0.98690000  1.0
  H  H52  1  0.43870000  0.16370000  0.90170000  1.0
  C  C53  1  0.04049000  0.53781000  0.11781000  1.0
  C  C54  1  0.43000000  0.20157000  0.90843000  1.0
  H  H55  1  0.50130000  0.26330000  0.97670000  1.0
  C  C56  1  0.87143000  0.83341000  0.07893000  1.0
  N  N57  1  0.28717000  0.36803000  0.86083000  1.0
  C  C58  1  0.05386000  0.61049000  0.18819000  1.0
  C  C59  1  0.00257000  0.61919000  0.24447000  1.0
  C  C60  1  0.04000000  0.59157000  0.29843000  1.0
  C  C61  1  0.48012000  0.20238000  0.94498000  1.0
  H  H62  1  0.14620000  0.45010000  0.69830000  1.0
  C  C63  1  0.12748000  0.55502000  0.29762000  1.0
  C  C64  1  0.55051000  0.14779000  0.97579000  1.0
  C  C65  1  0.28381000  0.38589000  0.79509000  1.0
  C  C66  1  0.36564000  0.37816000  0.75216000  1.0
  C  C67  1  0.36545000  0.39275000  0.68775000  1.0
  C  C68  1  0.28377000  0.42107000  0.66659000  1.0
  C  C69  1  0.20196000  0.43155000  0.71153000  1.0
  C  C70  1  0.18057000  0.54713000  0.23913000  1.0
  C  C71  1  0.27633000  0.44147000  0.59807000  1.0
  C  C72  1  0.23345000  0.40755000  0.89795000  1.0
  C  C73  1  0.19611000  0.38219000  0.96219000  1.0
  Mg  Mg74  1  0.16901000  0.49487000  0.49487000  1.0
