# generated using pymatgen
data_TbH4(CO2)4
_symmetry_space_group_name_H-M   'P 1'
_cell_length_a   6.69860000
_cell_length_b   8.49340000
_cell_length_c   9.84611424
_cell_angle_alpha   90.00000000
_cell_angle_beta   109.88690573
_cell_angle_gamma   90.00000000
_symmetry_Int_Tables_number   1
_chemical_formula_structural   TbH4(CO2)4
_chemical_formula_sum   'Tb2 H8 C8 O16'
_cell_volume   526.77767578
_cell_formula_units_Z   2
loop_
 _symmetry_equiv_pos_site_id
 _symmetry_equiv_pos_as_xyz
  1  'x, y, z'
loop_
 _atom_site_type_symbol
 _atom_site_label
 _atom_site_symmetry_multiplicity
 _atom_site_fract_x
 _atom_site_fract_y
 _atom_site_fract_z
 _atom_site_occupancy
  C  C0  1  0.50780000  0.52730000  0.48600000  1
  C  C1  1  0.49220000  0.02730000  0.51400000  1
  C  C2  1  0.97820000  0.97270000  0.48600000  1
  C  C3  1  0.02180000  0.47270000  0.51400000  1
  C  C4  1  0.57390000  0.50000000  0.00000000  1
  C  C5  1  0.42610000  1.00000000  0.00000000  1
  C  C6  1  0.12500000  0.25000000  0.25000000  1
  C  C7  1  0.87500000  0.75000000  0.75000000  1
  H  H8  1  0.56720000  0.45850000  0.56260000  1
  H  H9  1  0.43280000  0.95850000  0.43740000  1
  H  H10  1  0.99540000  0.04150000  0.56260000  1
  H  H11  1  0.00460000  0.54150000  0.43740000  1
  H  H12  1  0.71270000  0.50000000  1.00000000  1
  H  H13  1  0.28730000  1.00000000  0.00000000  1
  H  H14  1  0.17520000  0.25000000  0.35040000  1
  H  H15  1  0.82480000  0.75000000  0.64960000  1
  O  O16  1  0.43827000  0.65300000  0.51494000  1
  O  O17  1  0.50684000  0.48340000  0.36588000  1
  O  O18  1  0.53668000  0.43100000  0.09936000  1
  O  O19  1  0.25758000  0.22940000  0.18836000  1
  O  O20  1  0.56173000  0.15300000  0.48506000  1
  O  O21  1  0.49316000  0.98340000  0.63412000  1
  O  O22  1  0.46332000  0.93100000  0.90064000  1
  O  O23  1  0.74242000  0.72940000  0.81164000  1
  O  O24  1  0.07667000  0.84700000  0.51494000  1
  O  O25  1  0.85904000  0.01660000  0.36588000  1
  O  O26  1  0.56268000  0.06900000  0.09936000  1
  O  O27  1  0.93078000  0.27060000  0.18836000  1
  O  O28  1  0.92333000  0.34700000  0.48506000  1
  O  O29  1  0.14096000  0.51660000  0.63412000  1
  O  O30  1  0.43732000  0.56900000  0.90064000  1
  O  O31  1  0.06922000  0.77060000  0.81164000  1
  Tb  Tb32  1  0.64266000  0.25000000  0.28532000  1
  Tb  Tb33  1  0.35734000  0.75000000  0.71468000  1
