# generated using pymatgen
data_Eu12H179(C46O17)4
_symmetry_space_group_name_H-M   'P 1'
_cell_length_a   19.88100000
_cell_length_b   19.88100000
_cell_length_c   33.03450000
_cell_angle_alpha   90.00000000
_cell_angle_beta   90.00000000
_cell_angle_gamma   90.00000000
_symmetry_Int_Tables_number   1
_chemical_formula_structural   Eu12H179(C46O17)4
_chemical_formula_sum   'Eu12 H179 C184 O68'
_cell_volume   13057.02358155
_cell_formula_units_Z   1
loop_
 _symmetry_equiv_pos_site_id
 _symmetry_equiv_pos_as_xyz
  1  'x, y, z'
loop_
 _atom_site_type_symbol
 _atom_site_label
 _atom_site_symmetry_multiplicity
 _atom_site_fract_x
 _atom_site_fract_y
 _atom_site_fract_z
 _atom_site_occupancy
  Eu  Eu0  1  0.50000000  0.50000000  0.58512000  1
  Eu  Eu1  1  0.50000000  0.50000000  0.41488000  1
  Eu  Eu2  1  0.00000000  0.00000000  0.08512000  1
  Eu  Eu3  1  0.63218000  0.54923000  0.50000000  1
  Eu  Eu4  1  0.36782000  0.45077000  0.50000000  1
  Eu  Eu5  1  0.45077000  0.63218000  0.50000000  1
  Eu  Eu6  1  0.54923000  0.36782000  0.50000000  1
  Eu  Eu7  1  0.86782000  0.04923000  0.00000000  1
  Eu  Eu8  1  0.04923000  0.13218000  0.00000000  1
  O  O9  1  0.58450000  0.46219000  0.46188000  1
  O  O10  1  0.41550000  0.53781000  0.46188000  1
  O  O11  1  0.53781000  0.58450000  0.46188000  1
  O  O12  1  0.46219000  0.41550000  0.46188000  1
  O  O13  1  0.08450000  0.03781000  0.03812000  1
  O  O14  1  0.96219000  0.08450000  0.03812000  1
  O  O15  1  0.41550000  0.53781000  0.53812000  1
  O  O16  1  0.58450000  0.46219000  0.53812000  1
  O  O17  1  0.46219000  0.41550000  0.53812000  1
  O  O18  1  0.53781000  0.58450000  0.53812000  1
  O  O19  1  0.60310000  0.53300000  0.61419000  1
  O  O20  1  0.39690000  0.46700000  0.61419000  1
  O  O21  1  0.46700000  0.60310000  0.61419000  1
  O  O22  1  0.53300000  0.39690000  0.61419000  1
  O  O23  1  0.89690000  0.03300000  0.88581000  1
  O  O24  1  0.10310000  0.96700000  0.88581000  1
  O  O25  1  0.03300000  0.10310000  0.88581000  1
  O  O26  1  0.96700000  0.89690000  0.88581000  1
  O  O27  1  0.39690000  0.46700000  0.38581000  1
  O  O28  1  0.60310000  0.53300000  0.38581000  1
  O  O29  1  0.53300000  0.39690000  0.38581000  1
  O  O30  1  0.46700000  0.60310000  0.38581000  1
  O  O31  1  0.10310000  0.96700000  0.11419000  1
  O  O32  1  0.89690000  0.03300000  0.11419000  1
  O  O33  1  0.96700000  0.89690000  0.11419000  1
  O  O34  1  0.03300000  0.10310000  0.11419000  1
  O  O35  1  0.67700000  0.56510000  0.56525000  1
  O  O36  1  0.32300000  0.43490000  0.56525000  1
  O  O37  1  0.43490000  0.67700000  0.56525000  1
  O  O38  1  0.56510000  0.32300000  0.56525000  1
  O  O39  1  0.82300000  0.06510000  0.93475000  1
  O  O40  1  0.17700000  0.93490000  0.93475000  1
  O  O41  1  0.06510000  0.17700000  0.93475000  1
  O  O42  1  0.93490000  0.82300000  0.93475000  1
  O  O43  1  0.32300000  0.43490000  0.43475000  1
  O  O44  1  0.67700000  0.56510000  0.43475000  1
  O  O45  1  0.56510000  0.32300000  0.43475000  1
  O  O46  1  0.43490000  0.67700000  0.43475000  1
  O  O47  1  0.17700000  0.93490000  0.06525000  1
  O  O48  1  0.82300000  0.06510000  0.06525000  1
  O  O49  1  0.93490000  0.82300000  0.06525000  1
  O  O50  1  0.06510000  0.17700000  0.06525000  1
  O  O51  1  0.72250000  0.46480000  0.50000000  1
  O  O52  1  0.27750000  0.53520000  0.50000000  1
  O  O53  1  0.53520000  0.72250000  0.50000000  1
  O  O54  1  0.46480000  0.27750000  0.50000000  1
  C  C55  1  0.97280000  0.52720000  0.75000000  1
  C  C56  1  0.02720000  0.47280000  0.75000000  1
  C  C57  1  0.47280000  0.97280000  0.75000000  1
  C  C58  1  0.52720000  0.02720000  0.75000000  1
  C  C59  1  0.02720000  0.47280000  0.25000000  1
  C  C60  1  0.97280000  0.52720000  0.25000000  1
  C  C61  1  0.52720000  0.02720000  0.25000000  1
  C  C62  1  0.47280000  0.97280000  0.25000000  1
  C  C63  1  0.87230000  0.57260000  0.72242000  1
  C  C64  1  0.12770000  0.42740000  0.72242000  1
  C  C65  1  0.42740000  0.87230000  0.72242000  1
  C  C66  1  0.57260000  0.12770000  0.72242000  1
  C  C67  1  0.62770000  0.07260000  0.77758000  1
  C  C68  1  0.37230000  0.92740000  0.77758000  1
  C  C69  1  0.07260000  0.37230000  0.77758000  1
  C  C70  1  0.92740000  0.62770000  0.77758000  1
  C  C71  1  0.12770000  0.42740000  0.27758000  1
  C  C72  1  0.87230000  0.57260000  0.27758000  1
  C  C73  1  0.57260000  0.12770000  0.27758000  1
  C  C74  1  0.42740000  0.87230000  0.27758000  1
  C  C75  1  0.37230000  0.92740000  0.22242000  1
  C  C76  1  0.62770000  0.07260000  0.22242000  1
  C  C77  1  0.92740000  0.62770000  0.22242000  1
  C  C78  1  0.07260000  0.37230000  0.22242000  1
  C  C79  1  0.81510000  0.57030000  0.69187000  1
  C  C80  1  0.18490000  0.42970000  0.69187000  1
  C  C81  1  0.42970000  0.81510000  0.69187000  1
  C  C82  1  0.57030000  0.18490000  0.69187000  1
  C  C83  1  0.68490000  0.07030000  0.80813000  1
  C  C84  1  0.31510000  0.92970000  0.80813000  1
  C  C85  1  0.07030000  0.31510000  0.80813000  1
  C  C86  1  0.92970000  0.68490000  0.80813000  1
  C  C87  1  0.18490000  0.42970000  0.30813000  1
  C  C88  1  0.81510000  0.57030000  0.30813000  1
  C  C89  1  0.57030000  0.18490000  0.30813000  1
  C  C90  1  0.42970000  0.81510000  0.30813000  1
  C  C91  1  0.31510000  0.92970000  0.19187000  1
  C  C92  1  0.68490000  0.07030000  0.19187000  1
  C  C93  1  0.92970000  0.68490000  0.19187000  1
  C  C94  1  0.07030000  0.31510000  0.19187000  1
  C  C95  1  0.87440000  0.62560000  0.75000000  1
  C  C96  1  0.12560000  0.37440000  0.75000000  1
  C  C97  1  0.37440000  0.87440000  0.75000000  1
  C  C98  1  0.62560000  0.12560000  0.75000000  1
  C  C99  1  0.12560000  0.37440000  0.25000000  1
  C  C100  1  0.87440000  0.62560000  0.25000000  1
  C  C101  1  0.62560000  0.12560000  0.25000000  1
  C  C102  1  0.37440000  0.87440000  0.25000000  1
  C  C103  1  0.92050000  0.52220000  0.72350000  1
  C  C104  1  0.07950000  0.47780000  0.72350000  1
  C  C105  1  0.47780000  0.92050000  0.72350000  1
  C  C106  1  0.52220000  0.07950000  0.72350000  1
  C  C107  1  0.57950000  0.02220000  0.77650000  1
  C  C108  1  0.42050000  0.97780000  0.77650000  1
  C  C109  1  0.02220000  0.42050000  0.77650000  1
  C  C110  1  0.97780000  0.57950000  0.77650000  1
  C  C111  1  0.07950000  0.47780000  0.27650000  1
  C  C112  1  0.92050000  0.52220000  0.27650000  1
  C  C113  1  0.52220000  0.07950000  0.27650000  1
  C  C114  1  0.47780000  0.92050000  0.27650000  1
  C  C115  1  0.42050000  0.97780000  0.22350000  1
  C  C116  1  0.57950000  0.02220000  0.22350000  1
  C  C117  1  0.97780000  0.57950000  0.22350000  1
  C  C118  1  0.02220000  0.42050000  0.22350000  1
  C  C119  1  0.71340000  0.55980000  0.63322000  1
  C  C120  1  0.28660000  0.44020000  0.63322000  1
  C  C121  1  0.44020000  0.71340000  0.63322000  1
  C  C122  1  0.55980000  0.28660000  0.63322000  1
  C  C123  1  0.78660000  0.05980000  0.86678000  1
  C  C124  1  0.21340000  0.94020000  0.86678000  1
  C  C125  1  0.05980000  0.21340000  0.86678000  1
  C  C126  1  0.94020000  0.78660000  0.86678000  1
  C  C127  1  0.28660000  0.44020000  0.36678000  1
  C  C128  1  0.71340000  0.55980000  0.36678000  1
  C  C129  1  0.55980000  0.28660000  0.36678000  1
  C  C130  1  0.44020000  0.71340000  0.36678000  1
  C  C131  1  0.21340000  0.94020000  0.13322000  1
  C  C132  1  0.78660000  0.05980000  0.13322000  1
  C  C133  1  0.94020000  0.78660000  0.13322000  1
  C  C134  1  0.05980000  0.21340000  0.13322000  1
  C  C135  1  0.65970000  0.55240000  0.60160000  1
  C  C136  1  0.34030000  0.44760000  0.60160000  1
  C  C137  1  0.44760000  0.65970000  0.60160000  1
  C  C138  1  0.55240000  0.34030000  0.60160000  1
  C  C139  1  0.84030000  0.05240000  0.89840000  1
  C  C140  1  0.15970000  0.94760000  0.89840000  1
  C  C141  1  0.05240000  0.15970000  0.89840000  1
  C  C142  1  0.94760000  0.84030000  0.89840000  1
  C  C143  1  0.34030000  0.44760000  0.39840000  1
  C  C144  1  0.65970000  0.55240000  0.39840000  1
  C  C145  1  0.55240000  0.34030000  0.39840000  1
  C  C146  1  0.44760000  0.65970000  0.39840000  1
  C  C147  1  0.15970000  0.94760000  0.10160000  1
  C  C148  1  0.84030000  0.05240000  0.10160000  1
  C  C149  1  0.94760000  0.84030000  0.10160000  1
  C  C150  1  0.05240000  0.15970000  0.10160000  1
  O  O151  1  0.64660000  0.67140000  0.50000000  1
  O  O152  1  0.35340000  0.32860000  0.50000000  1
  O  O153  1  0.32860000  0.64660000  0.50000000  1
  O  O154  1  0.67140000  0.35340000  0.50000000  1
  O  O155  1  0.85340000  0.17140000  0.00000000  1
  O  O156  1  0.17140000  0.14660000  0.00000000  1
  C  C157  1  0.75220000  0.54700000  0.70210000  1
  C  C158  1  0.24780000  0.45300000  0.70210000  1
  C  C159  1  0.45300000  0.75220000  0.70210000  1
  C  C160  1  0.54700000  0.24780000  0.70210000  1
  C  C161  1  0.74780000  0.04700000  0.79790000  1
  C  C162  1  0.25220000  0.95300000  0.79790000  1
  C  C163  1  0.04700000  0.25220000  0.79790000  1
  C  C164  1  0.95300000  0.74780000  0.79790000  1
  C  C165  1  0.24780000  0.45300000  0.29790000  1
  C  C166  1  0.75220000  0.54700000  0.29790000  1
  C  C167  1  0.54700000  0.24780000  0.29790000  1
  C  C168  1  0.45300000  0.75220000  0.29790000  1
  C  C169  1  0.25220000  0.95300000  0.20210000  1
  C  C170  1  0.74780000  0.04700000  0.20210000  1
  C  C171  1  0.95300000  0.74780000  0.20210000  1
  C  C172  1  0.04700000  0.25220000  0.20210000  1
  H  H173  1  0.74350000  0.53390000  0.72860000  1
  H  H174  1  0.25650000  0.46610000  0.72860000  1
  H  H175  1  0.46610000  0.74350000  0.72860000  1
  H  H176  1  0.53390000  0.25650000  0.72860000  1
  H  H177  1  0.75650000  0.03390000  0.77140000  1
  H  H178  1  0.24350000  0.96610000  0.77140000  1
  H  H179  1  0.03390000  0.24350000  0.77140000  1
  H  H180  1  0.96610000  0.75650000  0.77140000  1
  H  H181  1  0.25650000  0.46610000  0.27140000  1
  H  H182  1  0.74350000  0.53390000  0.27140000  1
  H  H183  1  0.53390000  0.25650000  0.27140000  1
  H  H184  1  0.46610000  0.74350000  0.27140000  1
  H  H185  1  0.24350000  0.96610000  0.22860000  1
  H  H186  1  0.75650000  0.03390000  0.22860000  1
  H  H187  1  0.96610000  0.75650000  0.22860000  1
  H  H188  1  0.03390000  0.24350000  0.22860000  1
  C  C189  1  0.77480000  0.58440000  0.62337000  1
  C  C190  1  0.22520000  0.41560000  0.62337000  1
  C  C191  1  0.41560000  0.77480000  0.62337000  1
  C  C192  1  0.58440000  0.22520000  0.62337000  1
  C  C193  1  0.72520000  0.08440000  0.87663000  1
  C  C194  1  0.27480000  0.91560000  0.87663000  1
  C  C195  1  0.08440000  0.27480000  0.87663000  1
  C  C196  1  0.91560000  0.72520000  0.87663000  1
  C  C197  1  0.22520000  0.41560000  0.37663000  1
  C  C198  1  0.77480000  0.58440000  0.37663000  1
  C  C199  1  0.58440000  0.22520000  0.37663000  1
  C  C200  1  0.41560000  0.77480000  0.37663000  1
  C  C201  1  0.27480000  0.91560000  0.12337000  1
  C  C202  1  0.72520000  0.08440000  0.12337000  1
  C  C203  1  0.91560000  0.72520000  0.12337000  1
  C  C204  1  0.08440000  0.27480000  0.12337000  1
  H  H205  1  0.78240000  0.59920000  0.59710000  1
  H  H206  1  0.21760000  0.40080000  0.59710000  1
  H  H207  1  0.40080000  0.78240000  0.59710000  1
  H  H208  1  0.59920000  0.21760000  0.59710000  1
  H  H209  1  0.71760000  0.09920000  0.90290000  1
  H  H210  1  0.28240000  0.90080000  0.90290000  1
  H  H211  1  0.09920000  0.28240000  0.90290000  1
  H  H212  1  0.90080000  0.71760000  0.90290000  1
  H  H213  1  0.21760000  0.40080000  0.40290000  1
  H  H214  1  0.78240000  0.59920000  0.40290000  1
  H  H215  1  0.59920000  0.21760000  0.40290000  1
  H  H216  1  0.40080000  0.78240000  0.40290000  1
  H  H217  1  0.28240000  0.90080000  0.09710000  1
  H  H218  1  0.71760000  0.09920000  0.09710000  1
  H  H219  1  0.90080000  0.71760000  0.09710000  1
  H  H220  1  0.09920000  0.28240000  0.09710000  1
  C  C221  1  0.82700000  0.58820000  0.65157000  1
  C  C222  1  0.17300000  0.41180000  0.65157000  1
  C  C223  1  0.41180000  0.82700000  0.65157000  1
  C  C224  1  0.58820000  0.17300000  0.65157000  1
  C  C225  1  0.67300000  0.08820000  0.84843000  1
  C  C226  1  0.32700000  0.91180000  0.84843000  1
  C  C227  1  0.08820000  0.32700000  0.84843000  1
  C  C228  1  0.91180000  0.67300000  0.84843000  1
  C  C229  1  0.17300000  0.41180000  0.34843000  1
  C  C230  1  0.82700000  0.58820000  0.34843000  1
  C  C231  1  0.58820000  0.17300000  0.34843000  1
  C  C232  1  0.41180000  0.82700000  0.34843000  1
  C  C233  1  0.32700000  0.91180000  0.15157000  1
  C  C234  1  0.67300000  0.08820000  0.15157000  1
  C  C235  1  0.91180000  0.67300000  0.15157000  1
  C  C236  1  0.08820000  0.32700000  0.15157000  1
  H  H237  1  0.86950000  0.60270000  0.64360000  1
  H  H238  1  0.13050000  0.39730000  0.64360000  1
  H  H239  1  0.39730000  0.86950000  0.64360000  1
  H  H240  1  0.60270000  0.13050000  0.64360000  1
  H  H241  1  0.63050000  0.10270000  0.85640000  1
  H  H242  1  0.36950000  0.89730000  0.85640000  1
  H  H243  1  0.10270000  0.36950000  0.85640000  1
  H  H244  1  0.89730000  0.63050000  0.85640000  1
  H  H245  1  0.13050000  0.39730000  0.35640000  1
  H  H246  1  0.86950000  0.60270000  0.35640000  1
  H  H247  1  0.60270000  0.13050000  0.35640000  1
  H  H248  1  0.39730000  0.86950000  0.35640000  1
  H  H249  1  0.36950000  0.89730000  0.14360000  1
  H  H250  1  0.63050000  0.10270000  0.14360000  1
  H  H251  1  0.89730000  0.63050000  0.14360000  1
  H  H252  1  0.10270000  0.36950000  0.14360000  1
  C  C253  1  0.91400000  0.46300000  0.69420000  1
  C  C254  1  0.08600000  0.53700000  0.69420000  1
  C  C255  1  0.53700000  0.91400000  0.69420000  1
  C  C256  1  0.46300000  0.08600000  0.69420000  1
  C  C257  1  0.58600000  0.96300000  0.80580000  1
  C  C258  1  0.41400000  0.03700000  0.80580000  1
  C  C259  1  0.96300000  0.41400000  0.80580000  1
  C  C260  1  0.03700000  0.58600000  0.80580000  1
  C  C261  1  0.08600000  0.53700000  0.30580000  1
  C  C262  1  0.91400000  0.46300000  0.30580000  1
  C  C263  1  0.46300000  0.08600000  0.30580000  1
  C  C264  1  0.53700000  0.91400000  0.30580000  1
  C  C265  1  0.41400000  0.03700000  0.19420000  1
  C  C266  1  0.58600000  0.96300000  0.19420000  1
  C  C267  1  0.03700000  0.58600000  0.19420000  1
  C  C268  1  0.96300000  0.41400000  0.19420000  1
  H  H269  1  0.92890000  0.47650000  0.66780000  1
  H  H270  1  0.07110000  0.52350000  0.66780000  1
  H  H271  1  0.52350000  0.92890000  0.66780000  1
  H  H272  1  0.47650000  0.07110000  0.66780000  1
  H  H273  1  0.57110000  0.97650000  0.83220000  1
  H  H274  1  0.42890000  0.02350000  0.83220000  1
  H  H275  1  0.97650000  0.42890000  0.83220000  1
  H  H276  1  0.02350000  0.57110000  0.83220000  1
  H  H277  1  0.07110000  0.52350000  0.33220000  1
  H  H278  1  0.92890000  0.47650000  0.33220000  1
  H  H279  1  0.47650000  0.07110000  0.33220000  1
  H  H280  1  0.52350000  0.92890000  0.33220000  1
  H  H281  1  0.42890000  0.02350000  0.16780000  1
  H  H282  1  0.57110000  0.97650000  0.16780000  1
  H  H283  1  0.02350000  0.57110000  0.16780000  1
  H  H284  1  0.97650000  0.42890000  0.16780000  1
  H  H285  1  0.86780000  0.44910000  0.69280000  1
  H  H286  1  0.13220000  0.55090000  0.69280000  1
  H  H287  1  0.55090000  0.86780000  0.69280000  1
  H  H288  1  0.44910000  0.13220000  0.69280000  1
  H  H289  1  0.63220000  0.94910000  0.80720000  1
  H  H290  1  0.36780000  0.05090000  0.80720000  1
  H  H291  1  0.94910000  0.36780000  0.80720000  1
  H  H292  1  0.05090000  0.63220000  0.80720000  1
  H  H293  1  0.13220000  0.55090000  0.30720000  1
  H  H294  1  0.86780000  0.44910000  0.30720000  1
  H  H295  1  0.44910000  0.13220000  0.30720000  1
  H  H296  1  0.55090000  0.86780000  0.30720000  1
  H  H297  1  0.36780000  0.05090000  0.19280000  1
  H  H298  1  0.63220000  0.94910000  0.19280000  1
  H  H299  1  0.05090000  0.63220000  0.19280000  1
  H  H300  1  0.94910000  0.36780000  0.19280000  1
  H  H301  1  0.94110000  0.42620000  0.70360000  1
  H  H302  1  0.05890000  0.57380000  0.70360000  1
  H  H303  1  0.57380000  0.94110000  0.70360000  1
  H  H304  1  0.42620000  0.05890000  0.70360000  1
  H  H305  1  0.55890000  0.92620000  0.79640000  1
  H  H306  1  0.44110000  0.07380000  0.79640000  1
  H  H307  1  0.92620000  0.44110000  0.79640000  1
  H  H308  1  0.07380000  0.55890000  0.79640000  1
  H  H309  1  0.05890000  0.57380000  0.29640000  1
  H  H310  1  0.94110000  0.42620000  0.29640000  1
  H  H311  1  0.42620000  0.05890000  0.29640000  1
  H  H312  1  0.57380000  0.94110000  0.29640000  1
  H  H313  1  0.44110000  0.07380000  0.20360000  1
  H  H314  1  0.55890000  0.92620000  0.20360000  1
  H  H315  1  0.07380000  0.55890000  0.20360000  1
  H  H316  1  0.92620000  0.44110000  0.20360000  1
  C  C317  1  0.70050000  0.54280000  0.67260000  1
  C  C318  1  0.29950000  0.45720000  0.67260000  1
  C  C319  1  0.45720000  0.70050000  0.67260000  1
  C  C320  1  0.54280000  0.29950000  0.67260000  1
  C  C321  1  0.79950000  0.04280000  0.82740000  1
  C  C322  1  0.20050000  0.95720000  0.82740000  1
  C  C323  1  0.04280000  0.20050000  0.82740000  1
  C  C324  1  0.95720000  0.79950000  0.82740000  1
  C  C325  1  0.29950000  0.45720000  0.32740000  1
  C  C326  1  0.70050000  0.54280000  0.32740000  1
  C  C327  1  0.54280000  0.29950000  0.32740000  1
  C  C328  1  0.45720000  0.70050000  0.32740000  1
  C  C329  1  0.20050000  0.95720000  0.17260000  1
  C  C330  1  0.79950000  0.04280000  0.17260000  1
  C  C331  1  0.95720000  0.79950000  0.17260000  1
  C  C332  1  0.04280000  0.20050000  0.17260000  1
  H  H333  1  0.65770000  0.52850000  0.68010000  1
  H  H334  1  0.34230000  0.47150000  0.68010000  1
  H  H335  1  0.47150000  0.65770000  0.68010000  1
  H  H336  1  0.52850000  0.34230000  0.68010000  1
  H  H337  1  0.84230000  0.02850000  0.81990000  1
  H  H338  1  0.15770000  0.97150000  0.81990000  1
  H  H339  1  0.02850000  0.15770000  0.81990000  1
  H  H340  1  0.97150000  0.84230000  0.81990000  1
  H  H341  1  0.34230000  0.47150000  0.31990000  1
  H  H342  1  0.65770000  0.52850000  0.31990000  1
  H  H343  1  0.52850000  0.34230000  0.31990000  1
  H  H344  1  0.47150000  0.65770000  0.31990000  1
  H  H345  1  0.15770000  0.97150000  0.18010000  1
  H  H346  1  0.84230000  0.02850000  0.18010000  1
  H  H347  1  0.97150000  0.84230000  0.18010000  1
  H  H348  1  0.02850000  0.15770000  0.18010000  1
  C  C349  1  0.82050000  0.67950000  0.75000000  1
  C  C350  1  0.17950000  0.32050000  0.75000000  1
  C  C351  1  0.32050000  0.82050000  0.75000000  1
  C  C352  1  0.67950000  0.17950000  0.75000000  1
  C  C353  1  0.17950000  0.32050000  0.25000000  1
  C  C354  1  0.82050000  0.67950000  0.25000000  1
  C  C355  1  0.67950000  0.17950000  0.25000000  1
  C  C356  1  0.32050000  0.82050000  0.25000000  1
  O  O357  1  0.50000000  0.50000000  0.66190000  1
  O  O358  1  0.50000000  0.50000000  0.33810000  1
  O  O359  1  0.00000000  0.00000000  0.16190000  1
  H  H360  1  0.17470000  0.29290000  0.77370000  1
  H  H361  1  0.82530000  0.70710000  0.77370000  1
  H  H362  1  0.29290000  0.82530000  0.77370000  1
  H  H363  1  0.67470000  0.20710000  0.72630000  1
  H  H364  1  0.82530000  0.70710000  0.22630000  1
  H  H365  1  0.17470000  0.29290000  0.22630000  1
  H  H366  1  0.29290000  0.82530000  0.22630000  1
  H  H367  1  0.67470000  0.20710000  0.27370000  1
  H  H368  1  0.79290000  0.67470000  0.27370000  1
  H  H369  1  0.22310000  0.34130000  0.75010000  1
  H  H370  1  0.77690000  0.65870000  0.75010000  1
  H  H371  1  0.34130000  0.77690000  0.75010000  1
  H  H372  1  0.72310000  0.15870000  0.74990000  1
  H  H373  1  0.77690000  0.65870000  0.24990000  1
  H  H374  1  0.22310000  0.34130000  0.24990000  1
  H  H375  1  0.34130000  0.77690000  0.24990000  1
  H  H376  1  0.72310000  0.15870000  0.25010000  1
  H  H377  1  0.84130000  0.72310000  0.25010000  1
  H  H378  1  0.17490000  0.29310000  0.72620000  1
  H  H379  1  0.82510000  0.70690000  0.72620000  1
  H  H380  1  0.29310000  0.82510000  0.72620000  1
  H  H381  1  0.67490000  0.20690000  0.77380000  1
  H  H382  1  0.82510000  0.70690000  0.27380000  1
  H  H383  1  0.17490000  0.29310000  0.27380000  1
  H  H384  1  0.29310000  0.82510000  0.27380000  1
  H  H385  1  0.67490000  0.20690000  0.22620000  1
  H  H386  1  0.79310000  0.67490000  0.22620000  1
  Eu  Eu387  1  0.00000000  0.00000000  0.91488000  1
  O  O388  1  0.08450000  0.03781000  0.96188000  1
  O  O389  1  0.00000000  0.00000000  0.83810000  1
  Eu  Eu390  1  0.13218000  0.95077000  0.00000000  1
  O  O391  1  0.03781000  0.91550000  0.03812000  1
  O  O392  1  0.14660000  0.82860000  0.00000000  1
  Eu  Eu393  1  0.95077000  0.86782000  0.00000000  1
  O  O394  1  0.91550000  0.96219000  0.03812000  1
  O  O395  1  0.82860000  0.85340000  0.00000000  1
  O  O396  1  0.91550000  0.96219000  0.96188000  1
  O  O397  1  0.96219000  0.08450000  0.96188000  1
  O  O398  1  0.77750000  0.96480000  0.00000000  1
  O  O399  1  0.96480000  0.22250000  0.00000000  1
  O  O400  1  0.03781000  0.91550000  0.96188000  1
  O  O401  1  0.22250000  0.03520000  0.00000000  1
  O  O402  1  0.03520000  0.77750000  0.00000000  1
  H  H403  1  0.46185200  0.47239200  0.67192000  1
  H  H404  1  0.54298400  0.48076700  0.67192000  1
  H  H405  1  0.03814850  0.97239160  0.82808000  1
  H  H406  1  0.95701620  0.98076670  0.82808000  1
  H  H407  1  0.50483500  0.45315800  0.32808000  1
  H  H408  1  0.45701600  0.51923300  0.32808000  1
  H  H409  1  0.00483534  0.04684180  0.17192000  1
  H  H410  1  0.95701620  0.98076670  0.17192000  1
  H  H411  1  0.60178700  0.69345400  0.50019300  1
  H  H412  1  0.67221100  0.68514200  0.52444600  1
  H  H413  1  0.39821300  0.30654600  0.50019300  1
  H  H414  1  0.32778900  0.31485800  0.52444600  1
  H  H415  1  0.30715100  0.60691400  0.51290400  1
  H  H416  1  0.31670000  0.68781100  0.51540000  1
  H  H417  1  0.69284900  0.39308600  0.51290400  1
  H  H418  1  0.68330000  0.31218900  0.51540000  1
  H  H419  1  0.89308600  0.19284900  0.98709630  1
  H  H420  1  0.81218900  0.18330000  0.98460000  1
  H  H421  1  0.10178700  0.80654600  0.99980652  1
  H  H422  1  0.17221100  0.81485800  0.97555380  1
  H  H423  1  0.19284900  0.10691400  0.98709630  1
  H  H424  1  0.18330000  0.18781100  0.98460000  1
  H  H425  1  0.80654600  0.89821300  0.99980652  1
  H  H426  1  0.81485800  0.82778900  0.97555380  1
  H  H427  1  0.26344300  0.54454300  0.47170900  1
  H  H428  1  0.23848400  0.51784200  0.51559100  1
  H  H429  1  0.53010700  0.75005100  0.47511500  1
  H  H430  1  0.52864100  0.75142200  0.52418700  1
  H  H431  1  0.73655700  0.45545700  0.47170900  1
  H  H432  1  0.76151600  0.48215800  0.51559100  1
  H  H433  1  0.23655700  0.04454300  0.02829110  1
  H  H434  1  0.26151600  0.01784230  0.98440870  1
  H  H435  1  0.04454300  0.76344300  0.02829110  1
  H  H436  1  0.01784230  0.73848400  0.98440870  1
  H  H437  1  0.96989280  0.25005100  0.02488470  1
  H  H438  1  0.97135890  0.25142200  0.97581260  1
  H  H439  1  0.46989300  0.24994900  0.47511500  1
  H  H440  1  0.47135900  0.24857800  0.52418700  1
  H  H441  1  0.74994900  0.96989280  0.02488470  1
  H  H442  1  0.74857800  0.97135890  0.97581260  1
