# generated using pymatgen
data_Eu3H54C76O17
_symmetry_space_group_name_H-M   'P 1'
_cell_length_a   20.65670000
_cell_length_b   20.65670000
_cell_length_c   42.46500000
_cell_angle_alpha   90.00000000
_cell_angle_beta   90.00000000
_cell_angle_gamma   90.00000000
_symmetry_Int_Tables_number   1
_chemical_formula_structural   Eu3H54C76O17
_chemical_formula_sum   'Eu12 H216 C304 O68'
_cell_volume   18119.78385890
_cell_formula_units_Z   4
loop_
 _symmetry_equiv_pos_site_id
 _symmetry_equiv_pos_as_xyz
  1  'x, y, z'
loop_
 _atom_site_type_symbol
 _atom_site_label
 _atom_site_symmetry_multiplicity
 _atom_site_fract_x
 _atom_site_fract_y
 _atom_site_fract_z
 _atom_site_occupancy
  Eu  Eu0  1  0.50000000  0.50000000  0.56471000  1
  Eu  Eu1  1  0.00000000  0.00000000  0.93529000  1
  Eu  Eu2  1  0.50000000  0.50000000  0.43529000  1
  Eu  Eu3  1  0.38119000  0.43813000  0.50000000  1
  Eu  Eu4  1  0.61881000  0.56187000  0.50000000  1
  Eu  Eu5  1  0.56187000  0.38119000  0.50000000  1
  Eu  Eu6  1  0.43813000  0.61881000  0.50000000  1
  Eu  Eu7  1  0.11881000  0.93813000  0.00000000  1
  Eu  Eu8  1  0.93813000  0.88119000  0.00000000  1
  O  O9  1  0.47310000  0.41470000  0.52952000  1
  O  O10  1  0.52690000  0.58530000  0.52952000  1
  O  O11  1  0.58530000  0.47310000  0.52952000  1
  O  O12  1  0.41470000  0.52690000  0.52952000  1
  O  O13  1  0.08530000  0.02690000  0.97048000  1
  O  O14  1  0.52690000  0.58530000  0.47048000  1
  O  O15  1  0.47310000  0.41470000  0.47048000  1
  O  O16  1  0.41470000  0.52690000  0.47048000  1
  O  O17  1  0.58530000  0.47310000  0.47048000  1
  O  O18  1  0.02690000  0.91470000  0.02952000  1
  O  O19  1  0.91470000  0.97310000  0.02952000  1
  O  O20  1  0.33770000  0.41810000  0.55000000  1
  O  O21  1  0.66230000  0.58190000  0.55000000  1
  O  O22  1  0.58190000  0.33770000  0.55000000  1
  O  O23  1  0.41810000  0.66230000  0.55000000  1
  O  O24  1  0.16230000  0.91810000  0.95000000  1
  O  O25  1  0.83770000  0.08190000  0.95000000  1
  O  O26  1  0.91810000  0.83770000  0.95000000  1
  O  O27  1  0.08190000  0.16230000  0.95000000  1
  O  O28  1  0.66230000  0.58190000  0.45000000  1
  O  O29  1  0.33770000  0.41810000  0.45000000  1
  O  O30  1  0.41810000  0.66230000  0.45000000  1
  O  O31  1  0.58190000  0.33770000  0.45000000  1
  O  O32  1  0.83770000  0.08190000  0.05000000  1
  O  O33  1  0.16230000  0.91810000  0.05000000  1
  O  O34  1  0.08190000  0.16230000  0.05000000  1
  O  O35  1  0.91810000  0.83770000  0.05000000  1
  O  O36  1  0.41120000  0.45140000  0.58640000  1
  O  O37  1  0.58880000  0.54860000  0.58640000  1
  O  O38  1  0.54860000  0.41120000  0.58640000  1
  O  O39  1  0.45140000  0.58880000  0.58640000  1
  O  O40  1  0.08880000  0.95140000  0.91360000  1
  O  O41  1  0.91120000  0.04860000  0.91360000  1
  O  O42  1  0.95140000  0.91120000  0.91360000  1
  O  O43  1  0.04860000  0.08880000  0.91360000  1
  O  O44  1  0.58880000  0.54860000  0.41360000  1
  O  O45  1  0.41120000  0.45140000  0.41360000  1
  O  O46  1  0.45140000  0.58880000  0.41360000  1
  O  O47  1  0.54860000  0.41120000  0.41360000  1
  O  O48  1  0.91120000  0.04860000  0.08640000  1
  O  O49  1  0.08880000  0.95140000  0.08640000  1
  O  O50  1  0.04860000  0.08880000  0.08640000  1
  O  O51  1  0.95140000  0.91120000  0.08640000  1
  C  C52  1  0.02600000  0.47400000  0.75000000  1
  C  C53  1  0.97400000  0.52600000  0.75000000  1
  C  C54  1  0.52600000  0.02600000  0.75000000  1
  C  C55  1  0.47400000  0.97400000  0.75000000  1
  C  C56  1  0.97400000  0.52600000  0.25000000  1
  C  C57  1  0.02600000  0.47400000  0.25000000  1
  C  C58  1  0.47400000  0.97400000  0.25000000  1
  C  C59  1  0.52600000  0.02600000  0.25000000  1
  C  C60  1  0.07650000  0.47580000  0.72830000  1
  C  C61  1  0.92350000  0.52420000  0.72830000  1
  C  C62  1  0.52420000  0.07650000  0.72830000  1
  C  C63  1  0.47580000  0.92350000  0.72830000  1
  C  C64  1  0.42350000  0.97580000  0.77170000  1
  C  C65  1  0.57650000  0.02420000  0.77170000  1
  C  C66  1  0.97580000  0.57650000  0.77170000  1
  C  C67  1  0.02420000  0.42350000  0.77170000  1
  C  C68  1  0.92350000  0.52420000  0.27170000  1
  C  C69  1  0.07650000  0.47580000  0.27170000  1
  C  C70  1  0.47580000  0.92350000  0.27170000  1
  C  C71  1  0.52420000  0.07650000  0.27170000  1
  C  C72  1  0.57650000  0.02420000  0.22830000  1
  C  C73  1  0.42350000  0.97580000  0.22830000  1
  C  C74  1  0.02420000  0.42350000  0.22830000  1
  C  C75  1  0.97580000  0.57650000  0.22830000  1
  C  C76  1  0.12330000  0.42810000  0.72790000  1
  C  C77  1  0.87670000  0.57190000  0.72790000  1
  C  C78  1  0.57190000  0.12330000  0.72790000  1
  C  C79  1  0.42810000  0.87670000  0.72790000  1
  C  C80  1  0.37670000  0.92810000  0.77210000  1
  C  C81  1  0.62330000  0.07190000  0.77210000  1
  C  C82  1  0.92810000  0.62330000  0.77210000  1
  C  C83  1  0.07190000  0.37670000  0.77210000  1
  C  C84  1  0.87670000  0.57190000  0.27210000  1
  C  C85  1  0.12330000  0.42810000  0.27210000  1
  C  C86  1  0.42810000  0.87670000  0.27210000  1
  C  C87  1  0.57190000  0.12330000  0.27210000  1
  C  C88  1  0.62330000  0.07190000  0.22790000  1
  C  C89  1  0.37670000  0.92810000  0.22790000  1
  C  C90  1  0.07190000  0.37670000  0.22790000  1
  C  C91  1  0.92810000  0.62330000  0.22790000  1
  C  C92  1  0.35540000  0.42970000  0.57650000  1
  C  C93  1  0.64460000  0.57030000  0.57650000  1
  C  C94  1  0.57030000  0.35540000  0.57650000  1
  C  C95  1  0.42970000  0.64460000  0.57650000  1
  C  C96  1  0.14460000  0.92970000  0.92350000  1
  C  C97  1  0.85540000  0.07030000  0.92350000  1
  C  C98  1  0.92970000  0.85540000  0.92350000  1
  C  C99  1  0.07030000  0.14460000  0.92350000  1
  C  C100  1  0.64460000  0.57030000  0.42350000  1
  C  C101  1  0.35540000  0.42970000  0.42350000  1
  C  C102  1  0.42970000  0.64460000  0.42350000  1
  C  C103  1  0.57030000  0.35540000  0.42350000  1
  C  C104  1  0.85540000  0.07030000  0.07650000  1
  C  C105  1  0.14460000  0.92970000  0.07650000  1
  C  C106  1  0.07030000  0.14460000  0.07650000  1
  C  C107  1  0.92970000  0.85540000  0.07650000  1
  C  C108  1  0.17430000  0.42900000  0.70350000  1
  C  C109  1  0.82570000  0.57100000  0.70350000  1
  C  C110  1  0.57100000  0.17430000  0.70350000  1
  C  C111  1  0.42900000  0.82570000  0.70350000  1
  C  C112  1  0.32570000  0.92900000  0.79650000  1
  C  C113  1  0.67430000  0.07100000  0.79650000  1
  C  C114  1  0.92900000  0.67430000  0.79650000  1
  C  C115  1  0.07100000  0.32570000  0.79650000  1
  C  C116  1  0.82570000  0.57100000  0.29650000  1
  C  C117  1  0.17430000  0.42900000  0.29650000  1
  C  C118  1  0.42900000  0.82570000  0.29650000  1
  C  C119  1  0.57100000  0.17430000  0.29650000  1
  C  C120  1  0.67430000  0.07100000  0.20350000  1
  C  C121  1  0.32570000  0.92900000  0.20350000  1
  C  C122  1  0.07100000  0.32570000  0.20350000  1
  C  C123  1  0.92900000  0.67430000  0.20350000  1
  C  C124  1  0.27070000  0.43370000  0.65740000  1
  C  C125  1  0.72930000  0.56630000  0.65740000  1
  C  C126  1  0.56630000  0.27070000  0.65740000  1
  C  C127  1  0.43370000  0.72930000  0.65740000  1
  C  C128  1  0.22930000  0.93370000  0.84260000  1
  C  C129  1  0.77070000  0.06630000  0.84260000  1
  C  C130  1  0.93370000  0.77070000  0.84260000  1
  C  C131  1  0.06630000  0.22930000  0.84260000  1
  C  C132  1  0.72930000  0.56630000  0.34260000  1
  C  C133  1  0.27070000  0.43370000  0.34260000  1
  C  C134  1  0.43370000  0.72930000  0.34260000  1
  C  C135  1  0.56630000  0.27070000  0.34260000  1
  C  C136  1  0.77070000  0.06630000  0.15740000  1
  C  C137  1  0.22930000  0.93370000  0.15740000  1
  C  C138  1  0.06630000  0.22930000  0.15740000  1
  C  C139  1  0.93370000  0.77070000  0.15740000  1
  C  C140  1  0.12170000  0.37830000  0.75000000  1
  C  C141  1  0.87830000  0.62170000  0.75000000  1
  C  C142  1  0.62170000  0.12170000  0.75000000  1
  C  C143  1  0.37830000  0.87830000  0.75000000  1
  C  C144  1  0.87830000  0.62170000  0.25000000  1
  C  C145  1  0.12170000  0.37830000  0.25000000  1
  C  C146  1  0.37830000  0.87830000  0.25000000  1
  C  C147  1  0.62170000  0.12170000  0.25000000  1
  C  C148  1  0.08130000  0.53380000  0.70600000  1
  C  C149  1  0.91870000  0.46620000  0.70600000  1
  C  C150  1  0.46620000  0.08130000  0.70600000  1
  C  C151  1  0.53380000  0.91870000  0.70600000  1
  C  C152  1  0.41870000  0.03380000  0.79400000  1
  C  C153  1  0.58130000  0.96620000  0.79400000  1
  C  C154  1  0.03380000  0.58130000  0.79400000  1
  C  C155  1  0.96620000  0.41870000  0.79400000  1
  C  C156  1  0.91870000  0.46620000  0.29400000  1
  C  C157  1  0.08130000  0.53380000  0.29400000  1
  C  C158  1  0.53380000  0.91870000  0.29400000  1
  C  C159  1  0.46620000  0.08130000  0.29400000  1
  C  C160  1  0.58130000  0.96620000  0.20600000  1
  C  C161  1  0.41870000  0.03380000  0.20600000  1
  C  C162  1  0.96620000  0.41870000  0.20600000  1
  C  C163  1  0.03380000  0.58130000  0.20600000  1
  H  H164  1  0.04430000  0.56265000  0.70947000  1
  H  H165  1  0.95570000  0.43735000  0.70947000  1
  H  H166  1  0.43735000  0.04430000  0.70947000  1
  H  H167  1  0.56265000  0.95570000  0.70947000  1
  H  H168  1  0.45570000  0.06265000  0.79053000  1
  H  H169  1  0.54430000  0.93735000  0.79053000  1
  H  H170  1  0.06265000  0.54430000  0.79053000  1
  H  H171  1  0.93735000  0.45570000  0.79053000  1
  H  H172  1  0.95570000  0.43735000  0.29053000  1
  H  H173  1  0.04430000  0.56265000  0.29053000  1
  H  H174  1  0.56265000  0.95570000  0.29053000  1
  H  H175  1  0.43735000  0.04430000  0.29053000  1
  H  H176  1  0.54430000  0.93735000  0.20947000  1
  H  H177  1  0.45570000  0.06265000  0.20947000  1
  H  H178  1  0.93735000  0.45570000  0.20947000  1
  H  H179  1  0.06265000  0.54430000  0.20947000  1
  H  H180  1  0.12158000  0.55744000  0.71018000  1
  H  H181  1  0.87842000  0.44256000  0.71018000  1
  H  H182  1  0.44256000  0.12158000  0.71018000  1
  H  H183  1  0.55744000  0.87842000  0.71018000  1
  H  H184  1  0.37842000  0.05744000  0.78982000  1
  H  H185  1  0.62158000  0.94256000  0.78982000  1
  H  H186  1  0.05744000  0.62158000  0.78982000  1
  H  H187  1  0.94256000  0.37842000  0.78982000  1
  H  H188  1  0.87842000  0.44256000  0.28982000  1
  H  H189  1  0.12158000  0.55744000  0.28982000  1
  H  H190  1  0.55744000  0.87842000  0.28982000  1
  H  H191  1  0.44256000  0.12158000  0.28982000  1
  H  H192  1  0.62158000  0.94256000  0.21018000  1
  H  H193  1  0.37842000  0.05744000  0.21018000  1
  H  H194  1  0.94256000  0.37842000  0.21018000  1
  H  H195  1  0.05744000  0.62158000  0.21018000  1
  H  H196  1  0.08115000  0.51861000  0.68417000  1
  H  H197  1  0.91885000  0.48139000  0.68417000  1
  H  H198  1  0.48139000  0.08115000  0.68417000  1
  H  H199  1  0.51861000  0.91885000  0.68417000  1
  H  H200  1  0.41885000  0.01861000  0.81583000  1
  H  H201  1  0.58115000  0.98139000  0.81583000  1
  H  H202  1  0.01861000  0.58115000  0.81583000  1
  H  H203  1  0.98139000  0.41885000  0.81583000  1
  H  H204  1  0.91885000  0.48139000  0.31583000  1
  H  H205  1  0.08115000  0.51861000  0.31583000  1
  H  H206  1  0.51861000  0.91885000  0.31583000  1
  H  H207  1  0.48139000  0.08115000  0.31583000  1
  H  H208  1  0.58115000  0.98139000  0.18417000  1
  H  H209  1  0.41885000  0.01861000  0.18417000  1
  H  H210  1  0.98139000  0.41885000  0.18417000  1
  H  H211  1  0.01861000  0.58115000  0.18417000  1
  C  C212  1  0.20890000  0.41120000  0.64990000  1
  C  C213  1  0.79110000  0.58880000  0.64990000  1
  C  C214  1  0.58880000  0.20890000  0.64990000  1
  C  C215  1  0.41120000  0.79110000  0.64990000  1
  C  C216  1  0.29110000  0.91120000  0.85010000  1
  C  C217  1  0.70890000  0.08880000  0.85010000  1
  C  C218  1  0.91120000  0.70890000  0.85010000  1
  C  C219  1  0.08880000  0.29110000  0.85010000  1
  C  C220  1  0.79110000  0.58880000  0.35010000  1
  C  C221  1  0.20890000  0.41120000  0.35010000  1
  C  C222  1  0.41120000  0.79110000  0.35010000  1
  C  C223  1  0.58880000  0.20890000  0.35010000  1
  C  C224  1  0.70890000  0.08880000  0.14990000  1
  C  C225  1  0.29110000  0.91120000  0.14990000  1
  C  C226  1  0.08880000  0.29110000  0.14990000  1
  C  C227  1  0.91120000  0.70890000  0.14990000  1
  C  C228  1  0.31840000  0.43880000  0.63380000  1
  C  C229  1  0.68160000  0.56120000  0.63380000  1
  C  C230  1  0.56120000  0.31840000  0.63380000  1
  C  C231  1  0.43880000  0.68160000  0.63380000  1
  C  C232  1  0.18160000  0.93880000  0.86620000  1
  C  C233  1  0.81840000  0.06120000  0.86620000  1
  C  C234  1  0.93880000  0.81840000  0.86620000  1
  C  C235  1  0.06120000  0.18160000  0.86620000  1
  C  C236  1  0.68160000  0.56120000  0.36620000  1
  C  C237  1  0.31840000  0.43880000  0.36620000  1
  C  C238  1  0.43880000  0.68160000  0.36620000  1
  C  C239  1  0.56120000  0.31840000  0.36620000  1
  C  C240  1  0.81840000  0.06120000  0.13380000  1
  C  C241  1  0.18160000  0.93880000  0.13380000  1
  C  C242  1  0.06120000  0.18160000  0.13380000  1
  C  C243  1  0.93880000  0.81840000  0.13380000  1
  H  H244  1  0.36052000  0.45382000  0.63904000  1
  H  H245  1  0.63948000  0.54618000  0.63904000  1
  H  H246  1  0.54618000  0.36052000  0.63904000  1
  H  H247  1  0.45382000  0.63948000  0.63904000  1
  H  H248  1  0.13948000  0.95382000  0.86096000  1
  H  H249  1  0.86052000  0.04618000  0.86096000  1
  H  H250  1  0.95382000  0.86052000  0.86096000  1
  H  H251  1  0.04618000  0.13948000  0.86096000  1
  H  H252  1  0.63948000  0.54618000  0.36096000  1
  H  H253  1  0.36052000  0.45382000  0.36096000  1
  H  H254  1  0.45382000  0.63948000  0.36096000  1
  H  H255  1  0.54618000  0.36052000  0.36096000  1
  H  H256  1  0.86052000  0.04618000  0.13904000  1
  H  H257  1  0.13948000  0.95382000  0.13904000  1
  H  H258  1  0.04618000  0.13948000  0.13904000  1
  H  H259  1  0.95382000  0.86052000  0.13904000  1
  C  C260  1  0.16060000  0.40720000  0.67360000  1
  C  C261  1  0.83940000  0.59280000  0.67360000  1
  C  C262  1  0.59280000  0.16060000  0.67360000  1
  C  C263  1  0.40720000  0.83940000  0.67360000  1
  C  C264  1  0.33940000  0.90720000  0.82640000  1
  C  C265  1  0.66060000  0.09280000  0.82640000  1
  C  C266  1  0.90720000  0.66060000  0.82640000  1
  C  C267  1  0.09280000  0.33940000  0.82640000  1
  C  C268  1  0.83940000  0.59280000  0.32640000  1
  C  C269  1  0.16060000  0.40720000  0.32640000  1
  C  C270  1  0.40720000  0.83940000  0.32640000  1
  C  C271  1  0.59280000  0.16060000  0.32640000  1
  C  C272  1  0.66060000  0.09280000  0.17360000  1
  C  C273  1  0.33940000  0.90720000  0.17360000  1
  C  C274  1  0.09280000  0.33940000  0.17360000  1
  C  C275  1  0.90720000  0.66060000  0.17360000  1
  H  H276  1  0.11916000  0.38971000  0.66888000  1
  H  H277  1  0.88084000  0.61029000  0.66888000  1
  H  H278  1  0.61029000  0.11916000  0.66888000  1
  H  H279  1  0.38971000  0.88084000  0.66888000  1
  H  H280  1  0.38084000  0.88971000  0.83112000  1
  H  H281  1  0.61916000  0.11029000  0.83112000  1
  H  H282  1  0.88971000  0.61916000  0.83112000  1
  H  H283  1  0.11029000  0.38084000  0.83112000  1
  H  H284  1  0.88084000  0.61029000  0.33112000  1
  H  H285  1  0.11916000  0.38971000  0.33112000  1
  H  H286  1  0.38971000  0.88084000  0.33112000  1
  H  H287  1  0.61029000  0.11916000  0.33112000  1
  H  H288  1  0.61916000  0.11029000  0.16888000  1
  H  H289  1  0.38084000  0.88971000  0.16888000  1
  H  H290  1  0.11029000  0.38084000  0.16888000  1
  H  H291  1  0.88971000  0.61916000  0.16888000  1
  C  C292  1  0.30400000  0.42210000  0.60330000  1
  C  C293  1  0.69600000  0.57790000  0.60330000  1
  C  C294  1  0.57790000  0.30400000  0.60330000  1
  C  C295  1  0.42210000  0.69600000  0.60330000  1
  C  C296  1  0.19600000  0.92210000  0.89670000  1
  C  C297  1  0.80400000  0.07790000  0.89670000  1
  C  C298  1  0.92210000  0.80400000  0.89670000  1
  C  C299  1  0.07790000  0.19600000  0.89670000  1
  C  C300  1  0.69600000  0.57790000  0.39670000  1
  C  C301  1  0.30400000  0.42210000  0.39670000  1
  C  C302  1  0.42210000  0.69600000  0.39670000  1
  C  C303  1  0.57790000  0.30400000  0.39670000  1
  C  C304  1  0.80400000  0.07790000  0.10330000  1
  C  C305  1  0.19600000  0.92210000  0.10330000  1
  C  C306  1  0.07790000  0.19600000  0.10330000  1
  C  C307  1  0.92210000  0.80400000  0.10330000  1
  C  C308  1  0.28420000  0.45560000  0.68770000  1
  C  C309  1  0.71580000  0.54440000  0.68770000  1
  C  C310  1  0.54440000  0.28420000  0.68770000  1
  C  C311  1  0.45560000  0.71580000  0.68770000  1
  C  C312  1  0.21580000  0.95560000  0.81230000  1
  C  C313  1  0.78420000  0.04440000  0.81230000  1
  C  C314  1  0.95560000  0.78420000  0.81230000  1
  C  C315  1  0.04440000  0.21580000  0.81230000  1
  C  C316  1  0.71580000  0.54440000  0.31230000  1
  C  C317  1  0.28420000  0.45560000  0.31230000  1
  C  C318  1  0.45560000  0.71580000  0.31230000  1
  C  C319  1  0.54440000  0.28420000  0.31230000  1
  C  C320  1  0.78420000  0.04440000  0.18770000  1
  C  C321  1  0.21580000  0.95560000  0.18770000  1
  C  C322  1  0.04440000  0.21580000  0.18770000  1
  C  C323  1  0.95560000  0.78420000  0.18770000  1
  H  H324  1  0.32559000  0.47285000  0.69259000  1
  H  H325  1  0.67440000  0.52714000  0.69259000  1
  H  H326  1  0.52714000  0.32559000  0.69259000  1
  H  H327  1  0.47285000  0.67440000  0.69259000  1
  H  H328  1  0.17440000  0.97285000  0.80741000  1
  H  H329  1  0.82559000  0.02714000  0.80741000  1
  H  H330  1  0.97285000  0.82559000  0.80741000  1
  H  H331  1  0.02714000  0.17440000  0.80741000  1
  H  H332  1  0.67440000  0.52714000  0.30741000  1
  H  H333  1  0.32559000  0.47285000  0.30741000  1
  H  H334  1  0.47285000  0.67440000  0.30741000  1
  H  H335  1  0.52714000  0.32559000  0.30741000  1
  H  H336  1  0.82559000  0.02714000  0.19259000  1
  H  H337  1  0.17440000  0.97285000  0.19259000  1
  H  H338  1  0.02714000  0.17440000  0.19259000  1
  H  H339  1  0.97285000  0.82559000  0.19259000  1
  C  C340  1  0.23620000  0.45190000  0.71090000  1
  C  C341  1  0.76380000  0.54810000  0.71090000  1
  C  C342  1  0.54810000  0.23620000  0.71090000  1
  C  C343  1  0.45190000  0.76380000  0.71090000  1
  C  C344  1  0.26380000  0.95190000  0.78910000  1
  C  C345  1  0.73620000  0.04810000  0.78910000  1
  C  C346  1  0.95190000  0.73620000  0.78910000  1
  C  C347  1  0.04810000  0.26380000  0.78910000  1
  C  C348  1  0.76380000  0.54810000  0.28910000  1
  C  C349  1  0.23620000  0.45190000  0.28910000  1
  C  C350  1  0.45190000  0.76380000  0.28910000  1
  C  C351  1  0.54810000  0.23620000  0.28910000  1
  C  C352  1  0.73620000  0.04810000  0.21090000  1
  C  C353  1  0.26380000  0.95190000  0.21090000  1
  C  C354  1  0.04810000  0.26380000  0.21090000  1
  C  C355  1  0.95190000  0.73620000  0.21090000  1
  H  H356  1  0.24575000  0.46504000  0.73179000  1
  H  H357  1  0.75425000  0.53496000  0.73179000  1
  H  H358  1  0.53496000  0.24575000  0.73179000  1
  H  H359  1  0.46504000  0.75425000  0.73179000  1
  H  H360  1  0.25425000  0.96504000  0.76821000  1
  H  H361  1  0.74575000  0.03496000  0.76821000  1
  H  H362  1  0.96504000  0.74575000  0.76821000  1
  H  H363  1  0.03496000  0.25425000  0.76821000  1
  H  H364  1  0.75425000  0.53496000  0.26821000  1
  H  H365  1  0.24575000  0.46504000  0.26821000  1
  H  H366  1  0.46504000  0.75425000  0.26821000  1
  H  H367  1  0.53496000  0.24575000  0.26821000  1
  H  H368  1  0.74575000  0.03496000  0.23178000  1
  H  H369  1  0.25425000  0.96504000  0.23178000  1
  H  H370  1  0.03496000  0.25425000  0.23178000  1
  H  H371  1  0.96504000  0.74575000  0.23178000  1
  C  C372  1  0.24190000  0.39840000  0.59560000  1
  C  C373  1  0.75810000  0.60160000  0.59560000  1
  C  C374  1  0.60160000  0.24190000  0.59560000  1
  C  C375  1  0.39840000  0.75810000  0.59560000  1
  C  C376  1  0.25810000  0.89840000  0.90440000  1
  C  C377  1  0.74190000  0.10160000  0.90440000  1
  C  C378  1  0.89840000  0.74190000  0.90440000  1
  C  C379  1  0.10160000  0.25810000  0.90440000  1
  C  C380  1  0.75810000  0.60160000  0.40440000  1
  C  C381  1  0.24190000  0.39840000  0.40440000  1
  C  C382  1  0.39840000  0.75810000  0.40440000  1
  C  C383  1  0.60160000  0.24190000  0.40440000  1
  C  C384  1  0.74190000  0.10160000  0.09560000  1
  C  C385  1  0.25810000  0.89840000  0.09560000  1
  C  C386  1  0.10160000  0.25810000  0.09560000  1
  C  C387  1  0.89840000  0.74190000  0.09560000  1
  H  H388  1  0.23240000  0.38557000  0.57459000  1
  H  H389  1  0.76760000  0.61443000  0.57459000  1
  H  H390  1  0.61443000  0.23240000  0.57459000  1
  H  H391  1  0.38557000  0.76760000  0.57459000  1
  H  H392  1  0.26760000  0.88557000  0.92541000  1
  H  H393  1  0.73240000  0.11443000  0.92541000  1
  H  H394  1  0.88557000  0.73240000  0.92541000  1
  H  H395  1  0.11443000  0.26760000  0.92541000  1
  H  H396  1  0.76760000  0.61443000  0.42541000  1
  H  H397  1  0.23240000  0.38557000  0.42541000  1
  H  H398  1  0.38557000  0.76760000  0.42541000  1
  H  H399  1  0.61443000  0.23240000  0.42541000  1
  H  H400  1  0.73240000  0.11443000  0.07459000  1
  H  H401  1  0.26760000  0.88557000  0.07459000  1
  H  H402  1  0.11443000  0.26760000  0.07459000  1
  H  H403  1  0.88557000  0.73240000  0.07459000  1
  C  C404  1  0.17590000  0.32410000  0.75000000  1
  C  C405  1  0.82410000  0.67590000  0.75000000  1
  C  C406  1  0.67590000  0.17590000  0.75000000  1
  C  C407  1  0.32410000  0.82410000  0.75000000  1
  C  C408  1  0.82410000  0.67590000  0.25000000  1
  C  C409  1  0.17590000  0.32410000  0.25000000  1
  C  C410  1  0.32410000  0.82410000  0.25000000  1
  C  C411  1  0.67590000  0.17590000  0.25000000  1
  H  H412  1  0.20686000  0.33268000  0.73302000  1
  H  H413  1  0.79314000  0.66732000  0.73302000  1
  H  H414  1  0.33268000  0.79314000  0.73302000  1
  H  H415  1  0.70686000  0.16732000  0.76698000  1
  H  H416  1  0.79314000  0.66732000  0.26698000  1
  H  H417  1  0.20686000  0.33268000  0.26698000  1
  H  H418  1  0.33268000  0.79314000  0.26698000  1
  H  H419  1  0.66732000  0.20686000  0.26698000  1
  H  H420  1  0.19858000  0.32440000  0.77027000  1
  H  H421  1  0.80142000  0.67560000  0.77027000  1
  H  H422  1  0.32440000  0.80142000  0.77027000  1
  H  H423  1  0.69858000  0.17560000  0.72973000  1
  H  H424  1  0.80142000  0.67560000  0.22973000  1
  H  H425  1  0.19858000  0.32440000  0.22973000  1
  H  H426  1  0.32440000  0.80142000  0.22973000  1
  H  H427  1  0.67560000  0.19858000  0.22973000  1
  H  H428  1  0.15583000  0.28165000  0.74671000  1
  H  H429  1  0.84417000  0.71835000  0.74671000  1
  H  H430  1  0.28165000  0.84417000  0.74671000  1
  H  H431  1  0.65583000  0.21835000  0.75329000  1
  H  H432  1  0.84417000  0.71835000  0.25329000  1
  H  H433  1  0.15583000  0.28165000  0.25329000  1
  H  H434  1  0.28165000  0.84417000  0.25329000  1
  H  H435  1  0.71835000  0.15583000  0.25329000  1
  C  C436  1  0.19440000  0.39400000  0.61900000  1
  C  C437  1  0.80560000  0.60600000  0.61900000  1
  C  C438  1  0.60600000  0.19440000  0.61900000  1
  C  C439  1  0.39400000  0.80560000  0.61900000  1
  C  C440  1  0.30560000  0.89400000  0.88100000  1
  C  C441  1  0.69440000  0.10600000  0.88100000  1
  C  C442  1  0.89400000  0.69440000  0.88100000  1
  C  C443  1  0.10600000  0.30560000  0.88100000  1
  C  C444  1  0.80560000  0.60600000  0.38100000  1
  C  C445  1  0.19440000  0.39400000  0.38100000  1
  C  C446  1  0.39400000  0.80560000  0.38100000  1
  C  C447  1  0.60600000  0.19440000  0.38100000  1
  C  C448  1  0.69440000  0.10600000  0.11900000  1
  C  C449  1  0.30560000  0.89400000  0.11900000  1
  C  C450  1  0.10600000  0.30560000  0.11900000  1
  C  C451  1  0.89400000  0.69440000  0.11900000  1
  H  H452  1  0.15212000  0.37937000  0.61374000  1
  H  H453  1  0.84788000  0.62063000  0.61374000  1
  H  H454  1  0.62063000  0.15212000  0.61374000  1
  H  H455  1  0.37937000  0.84788000  0.61374000  1
  H  H456  1  0.34788000  0.87937000  0.88627000  1
  H  H457  1  0.65212000  0.12063000  0.88627000  1
  H  H458  1  0.87937000  0.65212000  0.88627000  1
  H  H459  1  0.12063000  0.34788000  0.88627000  1
  H  H460  1  0.84788000  0.62063000  0.38626000  1
  H  H461  1  0.15212000  0.37937000  0.38626000  1
  H  H462  1  0.37937000  0.84788000  0.38626000  1
  H  H463  1  0.62063000  0.15212000  0.38626000  1
  H  H464  1  0.65212000  0.12063000  0.11374000  1
  H  H465  1  0.34788000  0.87937000  0.11374000  1
  H  H466  1  0.12063000  0.34788000  0.11374000  1
  H  H467  1  0.87937000  0.65212000  0.11374000  1
  O  O468  1  0.37620000  0.32530000  0.50000000  1
  O  O469  1  0.62380000  0.67470000  0.50000000  1
  O  O470  1  0.67470000  0.37620000  0.50000000  1
  O  O471  1  0.32530000  0.62380000  0.50000000  1
  O  O472  1  0.12380000  0.82530000  0.00000000  1
  O  O473  1  0.82530000  0.87620000  0.00000000  1
  O  O474  1  0.50130000  0.28590000  0.50000000  1
  O  O475  1  0.49870000  0.71410000  0.50000000  1
  O  O476  1  0.71410000  0.50130000  0.50000000  1
  O  O477  1  0.28590000  0.49870000  0.50000000  1
  O  O478  1  0.99870000  0.78590000  0.00000000  1
  O  O479  1  0.78590000  0.00130000  0.00000000  1
  O  O480  1  0.50000000  0.50000000  0.62560000  1
  O  O481  1  0.00000000  0.00000000  0.87440000  1
  O  O482  1  0.50000000  0.50000000  0.37440000  1
  C  C483  1  0.41600000  0.21200000  0.50000000  1
  C  C484  1  0.58400000  0.78800000  0.50000000  1
  C  C485  1  0.78800000  0.41600000  0.50000000  1
  C  C486  1  0.21200000  0.58400000  0.50000000  1
  C  C487  1  0.08400000  0.71200000  0.00000000  1
  C  C488  1  0.71200000  0.91600000  0.00000000  1
  C  C489  1  0.35100000  0.19600000  0.50000000  1
  C  C490  1  0.64900000  0.80400000  0.50000000  1
  C  C491  1  0.80400000  0.35100000  0.50000000  1
  C  C492  1  0.19600000  0.64900000  0.50000000  1
  C  C493  1  0.14900000  0.69600000  0.00000000  1
  C  C494  1  0.69600000  0.85100000  0.00000000  1
  H  H495  1  0.31905000  0.22884000  0.50000000  1
  H  H496  1  0.68095000  0.77116000  0.50000000  1
  H  H497  1  0.77116000  0.31905000  0.50000000  1
  H  H498  1  0.22884000  0.68095000  0.50000000  1
  H  H499  1  0.18094000  0.72884000  0.00000000  1
  H  H500  1  0.72884000  0.81905000  0.00000000  1
  C  C501  1  0.33300000  0.13100000  0.50000000  1
  C  C502  1  0.66700000  0.86900000  0.50000000  1
  C  C503  1  0.86900000  0.33300000  0.50000000  1
  C  C504  1  0.13100000  0.66700000  0.50000000  1
  C  C505  1  0.16700000  0.63100000  0.00000000  1
  C  C506  1  0.63100000  0.83300000  0.00000000  1
  H  H507  1  0.28812000  0.11997000  0.50000000  1
  H  H508  1  0.71188000  0.88003000  0.50000000  1
  H  H509  1  0.88003000  0.28812000  0.50000000  1
  H  H510  1  0.11997000  0.71188000  0.50000000  1
  H  H511  1  0.21188000  0.61997000  0.00000000  1
  H  H512  1  0.61997000  0.78812000  0.00000000  1
  C  C513  1  0.37900000  0.08400000  0.50000000  1
  C  C514  1  0.62100000  0.91600000  0.50000000  1
  C  C515  1  0.91600000  0.37900000  0.50000000  1
  C  C516  1  0.08400000  0.62100000  0.50000000  1
  C  C517  1  0.12100000  0.58400000  0.00000000  1
  C  C518  1  0.58400000  0.87900000  0.00000000  1
  H  H519  1  0.36695000  0.03947000  0.50000000  1
  H  H520  1  0.63305000  0.96053000  0.50000000  1
  H  H521  1  0.96053000  0.36695000  0.50000000  1
  H  H522  1  0.03947000  0.63305000  0.50000000  1
  H  H523  1  0.13305000  0.53947000  0.00000000  1
  H  H524  1  0.53947000  0.86695000  0.00000000  1
  C  C525  1  0.44400000  0.10000000  0.50000000  1
  C  C526  1  0.55600000  0.90000000  0.50000000  1
  C  C527  1  0.90000000  0.44400000  0.50000000  1
  C  C528  1  0.10000000  0.55600000  0.50000000  1
  C  C529  1  0.05600000  0.60000000  0.00000000  1
  C  C530  1  0.60000000  0.94400000  0.00000000  1
  H  H531  1  0.47618000  0.06681000  0.50000000  1
  H  H532  1  0.52382000  0.93319000  0.50000000  1
  H  H533  1  0.93319000  0.47618000  0.50000000  1
  H  H534  1  0.06681000  0.52382000  0.50000000  1
  H  H535  1  0.02382000  0.56681000  0.00000000  1
  H  H536  1  0.56681000  0.97618000  0.00000000  1
  C  C537  1  0.46200000  0.16400000  0.50000000  1
  C  C538  1  0.53800000  0.83600000  0.50000000  1
  C  C539  1  0.83600000  0.46200000  0.50000000  1
  C  C540  1  0.16400000  0.53800000  0.50000000  1
  C  C541  1  0.03800000  0.66400000  0.00000000  1
  C  C542  1  0.66400000  0.96200000  0.00000000  1
  H  H543  1  0.50706000  0.17546000  0.50000000  1
  H  H544  1  0.49294000  0.82454000  0.50000000  1
  H  H545  1  0.82454000  0.50706000  0.50000000  1
  H  H546  1  0.17546000  0.49294000  0.50000000  1
  H  H547  1  0.99294000  0.67546000  0.00000000  1
  H  H548  1  0.67546000  0.00706000  0.00000000  1
  C  C549  1  0.43600000  0.28200000  0.50000000  1
  C  C550  1  0.56400000  0.71800000  0.50000000  1
  C  C551  1  0.71800000  0.43600000  0.50000000  1
  C  C552  1  0.28200000  0.56400000  0.50000000  1
  C  C553  1  0.06400000  0.78200000  0.00000000  1
  C  C554  1  0.78200000  0.93600000  0.00000000  1
  Eu  Eu555  1  0.00000000  1.00000000  0.06471000  1
  Eu  Eu556  1  0.06187000  0.11881000  0.00000000  1
  O  O557  1  0.08530000  0.02690000  0.02952000  1
  O  O558  1  0.17470000  0.12380000  0.00000000  1
  O  O559  1  0.21410000  0.99870000  0.00000000  1
  O  O560  1  0.00000000  1.00000000  0.12560000  1
  C  C561  1  0.28800000  0.08400000  0.00000000  1
  C  C562  1  0.30400000  0.14900000  0.00000000  1
  H  H563  1  0.27116000  0.18094000  0.00000000  1
  C  C564  1  0.36900000  0.16700000  0.00000000  1
  H  H565  1  0.38003000  0.21188000  0.00000000  1
  C  C566  1  0.41600000  0.12100000  0.00000000  1
  H  H567  1  0.46053000  0.13305000  0.00000000  1
  C  C568  1  0.40000000  0.05600000  0.00000000  1
  H  H569  1  0.43319000  0.02382000  0.00000000  1
  C  C570  1  0.33600000  0.03800000  0.00000000  1
  H  H571  1  0.32454000  0.99294000  0.00000000  1
  C  C572  1  0.21800000  0.06400000  0.00000000  1
  Eu  Eu573  1  0.88119000  0.06187000  0.00000000  1
  O  O574  1  0.97310000  0.08530000  0.02952000  1
  O  O575  1  0.87620000  0.17470000  0.00000000  1
  O  O576  1  0.00130000  0.21410000  0.00000000  1
  C  C577  1  0.91600000  0.28800000  0.00000000  1
  C  C578  1  0.85100000  0.30400000  0.00000000  1
  H  H579  1  0.81905000  0.27116000  0.00000000  1
  C  C580  1  0.83300000  0.36900000  0.00000000  1
  H  H581  1  0.78812000  0.38003000  0.00000000  1
  C  C582  1  0.87900000  0.41600000  0.00000000  1
  H  H583  1  0.86695000  0.46053000  0.00000000  1
  C  C584  1  0.94400000  0.40000000  0.00000000  1
  H  H585  1  0.97618000  0.43319000  0.00000000  1
  C  C586  1  0.96200000  0.33600000  0.00000000  1
  H  H587  1  0.00706000  0.32454000  0.00000000  1
  C  C588  1  0.93600000  0.21800000  0.00000000  1
  O  O589  1  0.02690000  0.91470000  0.97048000  1
  O  O590  1  0.97310000  0.08530000  0.97048000  1
  O  O591  1  0.91470000  0.97310000  0.97048000  1
  H  H592  1  0.53061800  0.46658300  0.63339500  1
  H  H593  1  0.51363100  0.54322400  0.63339500  1
  H  H594  1  0.03341670  0.96938250  0.86660500  1
  H  H595  1  0.95677610  0.98636900  0.86660500  1
  H  H596  1  0.54424900  0.50980700  0.36660500  1
  H  H597  1  0.48636900  0.45677600  0.36660500  1
  H  H598  1  0.04424850  0.99019300  0.13339500  1
  H  H599  1  0.98636900  0.04322000  0.13339500  1
