# generated using pymatgen
data_Eu3H26C41NO16
_symmetry_space_group_name_H-M   'P 1'
_cell_length_a   15.41900000
_cell_length_b   33.90480000
_cell_length_c   25.75538656
_cell_angle_alpha   48.83665690
_cell_angle_beta   72.58230744
_cell_angle_gamma   90.00000000
_symmetry_Int_Tables_number   1
_chemical_formula_structural   Eu3H26C41NO16
_chemical_formula_sum   'Eu12 H104 C164 N4 O64'
_cell_volume   9300.74537636
_cell_formula_units_Z   4
loop_
 _symmetry_equiv_pos_site_id
 _symmetry_equiv_pos_as_xyz
  1  'x, y, z'
loop_
 _atom_site_type_symbol
 _atom_site_label
 _atom_site_symmetry_multiplicity
 _atom_site_fract_x
 _atom_site_fract_y
 _atom_site_fract_z
 _atom_site_occupancy
  Eu  Eu0  1  0.07362000  0.29678000  0.85276000  1
  Eu  Eu1  1  0.92638000  0.70322000  0.14724000  1
  Eu  Eu2  1  0.92638000  0.14954000  0.14724000  1
  Eu  Eu3  1  0.07362000  0.85046000  0.85276000  1
  Eu  Eu4  1  0.12513000  0.72048000  0.00000000  1
  Eu  Eu5  1  0.87487000  0.72048000  0.00000000  1
  Eu  Eu6  1  0.87487000  0.27952000  0.00000000  1
  Eu  Eu7  1  0.12385000  0.83550000  0.00000000  1
  Eu  Eu8  1  0.87615000  0.83550000  0.00000000  1
  Eu  Eu9  1  0.87615000  0.16450000  0.00000000  1
  O  O10  1  0.00900000  0.28200000  0.79840000  1
  O  O11  1  0.80740000  0.71800000  0.20160000  1
  O  O12  1  0.80740000  0.08040000  0.20160000  1
  O  O13  1  0.00900000  0.91960000  0.79840000  1
  O  O14  1  0.19260000  0.91960000  0.79840000  1
  O  O15  1  0.99100000  0.08040000  0.20160000  1
  O  O16  1  0.99100000  0.71800000  0.20160000  1
  O  O17  1  0.19260000  0.28200000  0.79840000  1
  O  O18  1  0.89800000  0.20350000  0.87940000  1
  O  O19  1  0.77740000  0.79650000  0.12060000  1
  O  O20  1  0.77740000  0.08290000  0.12060000  1
  O  O21  1  0.89800000  0.91710000  0.87940000  1
  O  O22  1  0.22260000  0.91710000  0.87940000  1
  O  O23  1  0.10200000  0.08290000  0.12060000  1
  O  O24  1  0.10200000  0.79650000  0.12060000  1
  O  O25  1  0.22260000  0.20350000  0.87940000  1
  O  O26  1  0.10380000  0.63970000  0.11780000  1
  O  O27  1  0.22160000  0.36030000  0.88220000  1
  O  O28  1  0.22160000  0.75750000  0.88220000  1
  O  O29  1  0.10380000  0.24250000  0.11780000  1
  O  O30  1  0.77840000  0.24250000  0.11780000  1
  O  O31  1  0.89620000  0.75750000  0.88220000  1
  O  O32  1  0.89620000  0.36030000  0.88220000  1
  O  O33  1  0.77840000  0.63970000  0.11780000  1
  O  O34  1  0.98840000  0.63090000  0.20460000  1
  O  O35  1  0.19300000  0.36910000  0.79540000  1
  O  O36  1  0.19300000  0.83550000  0.79540000  1
  O  O37  1  0.98840000  0.16450000  0.20460000  1
  O  O38  1  0.80700000  0.16450000  0.20460000  1
  O  O39  1  0.01160000  0.83550000  0.79540000  1
  O  O40  1  0.01160000  0.36910000  0.79540000  1
  O  O41  1  0.80700000  0.63090000  0.20460000  1
  O  O42  1  0.07930000  0.89930000  0.00000000  1
  O  O43  1  0.92070000  0.89930000  0.00000000  1
  O  O44  1  0.08800000  0.65500000  0.00000000  1
  O  O45  1  0.91200000  0.65500000  0.00000000  1
  O  O46  1  0.03330000  0.20330000  0.93340000  1
  O  O47  1  0.96670000  0.79670000  0.06660000  1
  O  O48  1  0.96670000  0.13670000  0.06660000  1
  O  O49  1  0.03330000  0.86330000  0.93340000  1
  O  O50  1  0.15289000  0.25648000  0.93102000  1
  O  O51  1  0.08391000  0.74352000  0.06898000  1
  O  O52  1  0.15289000  0.81250000  0.93102000  1
  O  O53  1  0.84711000  0.18750000  0.06898000  1
  O  O54  1  0.84711000  0.74352000  0.06898000  1
  O  O55  1  0.03370000  0.30840000  0.93260000  1
  O  O56  1  0.96630000  0.69160000  0.06740000  1
  O  O57  1  0.96630000  0.24100000  0.06740000  1
  O  O58  1  0.03370000  0.75900000  0.93260000  1
  O  O59  1  0.27100000  0.72810000  0.00000000  1
  O  O60  1  0.72900000  0.72810000  0.00000000  1
  O  O61  1  0.72900000  0.27190000  0.00000000  1
  O  O62  1  0.26680000  0.83040000  0.00000000  1
  O  O63  1  0.73320000  0.83040000  0.00000000  1
  O  O64  1  0.73320000  0.16960000  0.00000000  1
  N  N65  1  0.97720000  0.21570000  0.56860000  1
  N  N66  1  0.54580000  0.78430000  0.43140000  1
  N  N67  1  0.45420000  0.21570000  0.56860000  1
  N  N68  1  0.02280000  0.78430000  0.43140000  1
  C  C69  1  0.95370000  0.24600000  0.81240000  1
  C  C70  1  0.76610000  0.75400000  0.18760000  1
  C  C71  1  0.76610000  0.05840000  0.18760000  1
  C  C72  1  0.95370000  0.94160000  0.81240000  1
  C  C73  1  0.23390000  0.94160000  0.81240000  1
  C  C74  1  0.04630000  0.05840000  0.18760000  1
  C  C75  1  0.04630000  0.75400000  0.18760000  1
  C  C76  1  0.23390000  0.24600000  0.81240000  1
  C  C77  1  0.96200000  0.25590000  0.74580000  1
  C  C78  1  0.70780000  0.74410000  0.25420000  1
  C  C79  1  0.70780000  0.00170000  0.25420000  1
  C  C80  1  0.96200000  0.99830000  0.74580000  1
  C  C81  1  0.29220000  0.99830000  0.74580000  1
  C  C82  1  0.03800000  0.00170000  0.25420000  1
  C  C83  1  0.03800000  0.74410000  0.25420000  1
  C  C84  1  0.29220000  0.25590000  0.74580000  1
  C  C85  1  0.89770000  0.22490000  0.75040000  1
  C  C86  1  0.64810000  0.77510000  0.24960000  1
  C  C87  1  0.64810000  0.97530000  0.24960000  1
  C  C88  1  0.89770000  0.02470000  0.75040000  1
  C  C89  1  0.35190000  0.02470000  0.75040000  1
  C  C90  1  0.10230000  0.97530000  0.24960000  1
  C  C91  1  0.10230000  0.77510000  0.24960000  1
  C  C92  1  0.35190000  0.22490000  0.75040000  1
  C  C93  1  0.90220000  0.23900000  0.68380000  1
  C  C94  1  0.58600000  0.76100000  0.31620000  1
  C  C95  1  0.58600000  0.92280000  0.31620000  1
  C  C96  1  0.90220000  0.07720000  0.68380000  1
  C  C97  1  0.41400000  0.07720000  0.68380000  1
  C  C98  1  0.09780000  0.92280000  0.31620000  1
  C  C99  1  0.09780000  0.76100000  0.31620000  1
  C  C100  1  0.41400000  0.23900000  0.68380000  1
  C  C101  1  0.97570000  0.28210000  0.61500000  1
  C  C102  1  0.59070000  0.71790000  0.38500000  1
  C  C103  1  0.59070000  0.89710000  0.38500000  1
  C  C104  1  0.97570000  0.10290000  0.61500000  1
  C  C105  1  0.40930000  0.10290000  0.61500000  1
  C  C106  1  0.02430000  0.89710000  0.38500000  1
  C  C107  1  0.02430000  0.71790000  0.38500000  1
  C  C108  1  0.40930000  0.28210000  0.61500000  1
  C  C109  1  0.03660000  0.31140000  0.61300000  1
  C  C110  1  0.64960000  0.68860000  0.38700000  1
  C  C111  1  0.64960000  0.92440000  0.38700000  1
  C  C112  1  0.03660000  0.07560000  0.61300000  1
  C  C113  1  0.35040000  0.07560000  0.61300000  1
  C  C114  1  0.96340000  0.92440000  0.38700000  1
  C  C115  1  0.96340000  0.68860000  0.38700000  1
  C  C116  1  0.35040000  0.31140000  0.61300000  1
  C  C117  1  0.03400000  0.29690000  0.68020000  1
  C  C118  1  0.71420000  0.70310000  0.31980000  1
  C  C119  1  0.71420000  0.97710000  0.31980000  1
  C  C120  1  0.03400000  0.02290000  0.68020000  1
  C  C121  1  0.28580000  0.02290000  0.68020000  1
  C  C122  1  0.96600000  0.97710000  0.31980000  1
  C  C123  1  0.96600000  0.70310000  0.31980000  1
  C  C124  1  0.28580000  0.29690000  0.68020000  1
  C  C125  1  0.98400000  0.30290000  0.54180000  1
  C  C126  1  0.52580000  0.69710000  0.45820000  1
  C  C127  1  0.52580000  0.84470000  0.45820000  1
  C  C128  1  0.98400000  0.15530000  0.54180000  1
  C  C129  1  0.47420000  0.15530000  0.54180000  1
  C  C130  1  0.01600000  0.84470000  0.45820000  1
  C  C131  1  0.01600000  0.69710000  0.45820000  1
  C  C132  1  0.47420000  0.30290000  0.54180000  1
  C  C133  1  0.98660000  0.27180000  0.52360000  1
  C  C134  1  0.51020000  0.72820000  0.47640000  1
  C  C135  1  0.51020000  0.79540000  0.47640000  1
  C  C136  1  0.98660000  0.20460000  0.52360000  1
  C  C137  1  0.48980000  0.20460000  0.52360000  1
  C  C138  1  0.01340000  0.79540000  0.47640000  1
  C  C139  1  0.01340000  0.72820000  0.47640000  1
  C  C140  1  0.48980000  0.27180000  0.52360000  1
  C  C141  1  0.99750000  0.29560000  0.45120000  1
  C  C142  1  0.44870000  0.70440000  0.54880000  1
  C  C143  1  0.44870000  0.74680000  0.54880000  1
  C  C144  1  0.99750000  0.25320000  0.45120000  1
  C  C145  1  0.55130000  0.25320000  0.45120000  1
  C  C146  1  0.00250000  0.74680000  0.54880000  1
  C  C147  1  0.00250000  0.70440000  0.54880000  1
  C  C148  1  0.55130000  0.29560000  0.45120000  1
  C  C149  1  0.01220000  0.35090000  0.39380000  1
  C  C150  1  0.40600000  0.64910000  0.60620000  1
  C  C151  1  0.40600000  0.74470000  0.60620000  1
  C  C152  1  0.01220000  0.25530000  0.39380000  1
  C  C153  1  0.59400000  0.25530000  0.39380000  1
  C  C154  1  0.98780000  0.74470000  0.60620000  1
  C  C155  1  0.98780000  0.64910000  0.60620000  1
  C  C156  1  0.59400000  0.35090000  0.39380000  1
  C  C157  1  0.00790000  0.38290000  0.41100000  1
  C  C158  1  0.41890000  0.61710000  0.58900000  1
  C  C159  1  0.41890000  0.79390000  0.58900000  1
  C  C160  1  0.00790000  0.20610000  0.41100000  1
  C  C161  1  0.58110000  0.20610000  0.41100000  1
  C  C162  1  0.99210000  0.79390000  0.58900000  1
  C  C163  1  0.99210000  0.61710000  0.58900000  1
  C  C164  1  0.58110000  0.38290000  0.41100000  1
  C  C165  1  0.99600000  0.35780000  0.48380000  1
  C  C166  1  0.47980000  0.64220000  0.51620000  1
  C  C167  1  0.47980000  0.84160000  0.51620000  1
  C  C168  1  0.99600000  0.15840000  0.48380000  1
  C  C169  1  0.52020000  0.15840000  0.48380000  1
  C  C170  1  0.00400000  0.84160000  0.51620000  1
  C  C171  1  0.00400000  0.64220000  0.51620000  1
  C  C172  1  0.52020000  0.35780000  0.48380000  1
  C  C173  1  0.02300000  0.44340000  0.35120000  1
  C  C174  1  0.37420000  0.55660000  0.64880000  1
  C  C175  1  0.37420000  0.79460000  0.64880000  1
  C  C176  1  0.02300000  0.20540000  0.35120000  1
  C  C177  1  0.62580000  0.20540000  0.35120000  1
  C  C178  1  0.97700000  0.79460000  0.64880000  1
  C  C179  1  0.97700000  0.55660000  0.64880000  1
  C  C180  1  0.62580000  0.44340000  0.35120000  1
  C  C181  1  0.08870000  0.47560000  0.27860000  1
  C  C182  1  0.36730000  0.52440000  0.72140000  1
  C  C183  1  0.36730000  0.75420000  0.72140000  1
  C  C184  1  0.08870000  0.24580000  0.27860000  1
  C  C185  1  0.63270000  0.24580000  0.27860000  1
  C  C186  1  0.91130000  0.75420000  0.72140000  1
  C  C187  1  0.91130000  0.52440000  0.72140000  1
  C  C188  1  0.63270000  0.47560000  0.27860000  1
  C  C189  1  0.09660000  0.53030000  0.22340000  1
  C  C190  1  0.32000000  0.46970000  0.77660000  1
  C  C191  1  0.32000000  0.75370000  0.77660000  1
  C  C192  1  0.09660000  0.24630000  0.22340000  1
  C  C193  1  0.68000000  0.24630000  0.22340000  1
  C  C194  1  0.90340000  0.75370000  0.77660000  1
  C  C195  1  0.90340000  0.46970000  0.77660000  1
  C  C196  1  0.68000000  0.53030000  0.22340000  1
  C  C197  1  0.03680000  0.55470000  0.24320000  1
  C  C198  1  0.28000000  0.44530000  0.75680000  1
  C  C199  1  0.28000000  0.79790000  0.75680000  1
  C  C200  1  0.03680000  0.20210000  0.24320000  1
  C  C201  1  0.72000000  0.20210000  0.24320000  1
  C  C202  1  0.96320000  0.79790000  0.75680000  1
  C  C203  1  0.96320000  0.44530000  0.75680000  1
  C  C204  1  0.72000000  0.55470000  0.24320000  1
  C  C205  1  0.97170000  0.52310000  0.31500000  1
  C  C206  1  0.28670000  0.47690000  0.68500000  1
  C  C207  1  0.28670000  0.83810000  0.68500000  1
  C  C208  1  0.97170000  0.16190000  0.31500000  1
  C  C209  1  0.71330000  0.16190000  0.31500000  1
  C  C210  1  0.02830000  0.83810000  0.68500000  1
  C  C211  1  0.02830000  0.47690000  0.68500000  1
  C  C212  1  0.71330000  0.52310000  0.31500000  1
  C  C213  1  0.96290000  0.46680000  0.37060000  1
  C  C214  1  0.33333333  0.53320000  0.62940000  1
  C  C215  1  0.33333333  0.83740000  0.62940000  1
  C  C216  1  0.96290000  0.16260000  0.37060000  1
  C  C217  1  0.66666667  0.16260000  0.37060000  1
  C  C218  1  0.03710000  0.83740000  0.62940000  1
  C  C219  1  0.03710000  0.53320000  0.62940000  1
  C  C220  1  0.66666667  0.46680000  0.37060000  1
  C  C221  1  0.04320000  0.61390000  0.18320000  1
  C  C222  1  0.22640000  0.38610000  0.81680000  1
  C  C223  1  0.22640000  0.79710000  0.81680000  1
  C  C224  1  0.04320000  0.20290000  0.18320000  1
  C  C225  1  0.77360000  0.20290000  0.18320000  1
  C  C226  1  0.95680000  0.79710000  0.81680000  1
  C  C227  1  0.95680000  0.38610000  0.81680000  1
  C  C228  1  0.77360000  0.61390000  0.18320000  1
  C  C229  1  0.00000000  0.91340000  0.00000000  1
  C  C230  1  0.00000000  0.63870000  0.00000000  1
  H  H231  1  0.85131000  0.19471300  0.79668000  1
  H  H232  1  0.64799000  0.80528700  0.20332000  1
  H  H233  1  0.64799000  0.99139300  0.20332000  1
  H  H234  1  0.85131000  0.00860700  0.79668000  1
  H  H235  1  0.35201000  0.00860700  0.79668000  1
  H  H236  1  0.14869000  0.99139300  0.20332000  1
  H  H237  1  0.14869000  0.80528700  0.20332000  1
  H  H238  1  0.35201000  0.19471300  0.79668000  1
  H  H239  1  0.85623300  0.21968100  0.68597400  1
  H  H240  1  0.54220700  0.78031900  0.31402600  1
  H  H241  1  0.54220700  0.90565500  0.31402600  1
  H  H242  1  0.85623300  0.09434500  0.68597400  1
  H  H243  1  0.45779300  0.09434500  0.68597400  1
  H  H244  1  0.14376700  0.90565500  0.31402600  1
  H  H245  1  0.14376700  0.78031900  0.31402600  1
  H  H246  1  0.45779300  0.21968100  0.68597400  1
  H  H247  1  0.08225400  0.34217100  0.56677800  1
  H  H248  1  0.64903200  0.65782900  0.43322200  1
  H  H249  1  0.64903200  0.90894900  0.43322200  1
  H  H250  1  0.08225400  0.09105100  0.56677800  1
  H  H251  1  0.35096800  0.09105100  0.56677800  1
  H  H252  1  0.91774600  0.90894900  0.43322200  1
  H  H253  1  0.91774600  0.65782900  0.43322200  1
  H  H254  1  0.35096800  0.34217100  0.56677800  1
  H  H255  1  0.08117900  0.31561800  0.67805600  1
  H  H256  1  0.75923500  0.68438200  0.32194400  1
  H  H257  1  0.75923500  0.99367400  0.32194400  1
  H  H258  1  0.08117900  0.00632600  0.67805600  1
  H  H259  1  0.24076500  0.00632600  0.67805600  1
  H  H260  1  0.91882100  0.99367400  0.32194400  1
  H  H261  1  0.91882100  0.68438200  0.32194400  1
  H  H262  1  0.24076500  0.31561800  0.67805600  1
  H  H263  1  0.02444500  0.36657500  0.34533600  1
  H  H264  1  0.36978100  0.63342500  0.65466400  1
  H  H265  1  0.36978100  0.71191100  0.65466400  1
  H  H266  1  0.02444500  0.28808900  0.34533600  1
  H  H267  1  0.63021900  0.28808900  0.34533600  1
  H  H268  1  0.97555500  0.71191100  0.65466400  1
  H  H269  1  0.97555500  0.63342500  0.65466400  1
  H  H270  1  0.63021900  0.36657500  0.34533600  1
  H  H271  1  0.99629500  0.37979000  0.49358000  1
  H  H272  1  0.48987500  0.62021000  0.50642000  1
  H  H273  1  0.48987500  0.87337000  0.50642000  1
  H  H274  1  0.99629500  0.12663000  0.49358000  1
  H  H275  1  0.51012500  0.12663000  0.49358000  1
  H  H276  1  0.00370500  0.87337000  0.50642000  1
  H  H277  1  0.00370500  0.62021000  0.50642000  1
  H  H278  1  0.51012500  0.37979000  0.49358000  1
  H  H279  1  0.12898500  0.46003600  0.26645000  1
  H  H280  1  0.39543500  0.53996400  0.73355000  1
  H  H281  1  0.39543500  0.72648600  0.73355000  1
  H  H282  1  0.12898500  0.27351400  0.26645000  1
  H  H283  1  0.60456500  0.27351400  0.26645000  1
  H  H284  1  0.87101500  0.72648600  0.73355000  1
  H  H285  1  0.87101500  0.53996400  0.73355000  1
  H  H286  1  0.60456500  0.46003600  0.26645000  1
  H  H287  1  0.13989500  0.55099200  0.17426600  1
  H  H288  1  0.31416100  0.44900800  0.82573400  1
  H  H289  1  0.31416100  0.72525800  0.82573400  1
  H  H290  1  0.13989500  0.27474200  0.17426600  1
  H  H291  1  0.68583900  0.27474200  0.17426600  1
  H  H292  1  0.86010500  0.72525800  0.82573400  1
  H  H293  1  0.86010500  0.44900800  0.82573400  1
  H  H294  1  0.68583900  0.55099200  0.17426600  1
  H  H295  1  0.93243600  0.53876800  0.32765200  1
  H  H296  1  0.26008800  0.46123200  0.67234800  1
  H  H297  1  0.26008800  0.86642000  0.67234800  1
  H  H298  1  0.93243600  0.13358000  0.32765200  1
  H  H299  1  0.73991200  0.13358000  0.32765200  1
  H  H300  1  0.06756400  0.86642000  0.67234800  1
  H  H301  1  0.06756400  0.46123200  0.67234800  1
  H  H302  1  0.73991200  0.53876800  0.32765200  1
  H  H303  1  0.91791600  0.44545400  0.41944000  1
  H  H304  1  0.33735600  0.55454600  0.58056000  1
  H  H305  1  0.33735600  0.86489400  0.58056000  1
  H  H306  1  0.91791600  0.13510600  0.41944000  1
  H  H307  1  0.66264400  0.13510600  0.41944000  1
  H  H308  1  0.08208400  0.86489400  0.58056000  1
  H  H309  1  0.08208400  0.55454600  0.58056000  1
  H  H310  1  0.66264400  0.44545400  0.41944000  1
  H  H311  1  0.96740400  0.19222800  0.61554200  1
  H  H312  1  0.58294600  0.80777200  0.38445800  1
  H  H313  1  0.41705400  0.19223000  0.61554200  1
  H  H314  1  0.03259600  0.80777000  0.38445800  1
  Eu  Eu315  1  0.12513000  0.27952000  0.00000000  1
  Eu  Eu316  1  0.12385000  0.16450000  0.00000000  1
  O  O317  1  0.07930000  0.10070000  0.00000000  1
  O  O318  1  0.92070000  0.10070000  0.00000000  1
  O  O319  1  0.08800000  0.34500000  0.00000000  1
  O  O320  1  0.91200000  0.34500000  0.00000000  1
  O  O321  1  0.08391000  0.18750000  0.06898000  1
  O  O322  1  0.27100000  0.27190000  0.00000000  1
  O  O323  1  0.26680000  0.16960000  0.00000000  1
  C  C324  1  1.00000000  0.08660000  0.00000000  1
  C  C325  1  1.00000000  0.36130000  0.00000000  1
  O  O326  1  0.91609000  0.81250000  0.93102000  1
  O  O327  1  0.91609000  0.25648000  0.93102000  1
  H  H328  1  0.02499000  0.40483300  0.95002170  1
  H  H329  1  0.02499000  0.09304510  0.95002170  1
  H  H330  1  0.02498920  0.95693300  0.95002170  1
  H  H331  1  0.97501080  0.59516700  0.04997830  1
  H  H332  1  0.31857800  0.73828400  0.95442750  1
  H  H333  1  0.28539800  0.75664700  1.00000000  1
  H  H334  1  0.69159900  0.72605200  0.04087620  1
  H  H335  1  0.73472200  0.76359900  0.95086160  1
  H  H336  1  0.26753000  0.23307200  0.04087620  1
  H  H337  1  0.31442000  0.28553900  0.95086160  1
  H  H338  1  0.27265000  0.13230900  0.03772490  1
  H  H339  1  0.31481000  0.18818600  0.94936520  1
  H  H340  1  0.26507400  0.79176200  0.04010680  1
  H  H341  1  0.31138200  0.84515600  0.95044340  1
  H  H342  1  0.69669900  0.29374700  0.00826219  1
  H  H343  1  0.73472200  0.28553900  0.95086160  1
  H  H344  1  0.70240200  0.85199200  0.00944983  1
  H  H345  1  0.73817400  0.84515600  0.95044340  1
  H  H346  1  0.70994700  0.19059600  0.01290990  1
  H  H347  1  0.73582300  0.18818600  0.94936520  1
