# generated using pymatgen
data_Eu6H48C80(NO11)3
_symmetry_space_group_name_H-M   'P 1'
_cell_length_a   18.84770000
_cell_length_b   19.18600000
_cell_length_c   25.92930000
_cell_angle_alpha   77.19200000
_cell_angle_beta   82.39100000
_cell_angle_gamma   61.25200000
_symmetry_Int_Tables_number   1
_chemical_formula_structural   Eu6H48C80(NO11)3
_chemical_formula_sum   'Eu12 H96 C160 N6 O66'
_cell_volume   8012.45891689
_cell_formula_units_Z   2
loop_
 _symmetry_equiv_pos_site_id
 _symmetry_equiv_pos_as_xyz
  1  'x, y, z'
loop_
 _atom_site_type_symbol
 _atom_site_label
 _atom_site_symmetry_multiplicity
 _atom_site_fract_x
 _atom_site_fract_y
 _atom_site_fract_z
 _atom_site_occupancy
  Eu  Eu0  1  0.44543000  0.45896000  0.41744000  1
  Eu  Eu1  1  0.55457000  0.54104000  0.58256000  1
  Eu  Eu2  1  0.51149000  0.62437000  0.42826000  1
  Eu  Eu3  1  0.48851000  0.37563000  0.57174000  1
  Eu  Eu4  1  0.66162000  0.39352000  0.47613000  1
  Eu  Eu5  1  0.33838000  0.60648000  0.52387000  1
  Eu  Eu6  1  0.63307000  0.49834000  0.03641000  1
  Eu  Eu7  1  0.36693000  0.50166000  0.96359000  1
  Eu  Eu8  1  0.40199000  0.67079000  0.00532000  1
  Eu  Eu9  1  0.59801000  0.32921000  0.99468000  1
  Eu  Eu10  1  0.45363000  0.45926000  0.10179000  1
  Eu  Eu11  1  0.54637000  0.54074000  0.89821000  1
  N  N12  1  0.29220000  0.88100000  0.20690000  1
  N  N13  1  0.70780000  0.11900000  0.79310000  1
  N  N14  1  0.87420000  0.28000000  0.25000000  1
  N  N15  1  0.12580000  0.72000000  0.75000000  1
  N  N16  1  0.32290000  0.45770000  0.27130000  1
  N  N17  1  0.67710000  0.54230000  0.72870000  1
  O  O18  1  0.43680000  0.55000000  0.33606000  1
  O  O19  1  0.56320000  0.45000000  0.66394000  1
  O  O20  1  0.47600000  0.64240000  0.34193000  1
  O  O21  1  0.52400000  0.35760000  0.65807000  1
  O  O22  1  0.37340000  0.56460000  0.14857000  1
  O  O23  1  0.62660000  0.43540000  0.85143000  1
  O  O24  1  0.34360000  0.68050000  0.09233000  1
  O  O25  1  0.65640000  0.31950000  0.90767000  1
  O  O26  1  0.73010000  0.27920000  0.02710000  1
  O  O27  1  0.26990000  0.72080000  0.97290000  1
  O  O28  1  0.75160000  0.37570000  0.04810000  1
  O  O29  1  0.24840000  0.62430000  0.95190000  1
  O  O30  1  0.49660000  0.32120000  0.13528000  1
  O  O31  1  0.50340000  0.67880000  0.86472000  1
  O  O32  1  0.57680000  0.24790000  0.07429000  1
  O  O33  1  0.42320000  0.75210000  0.92571000  1
  O  O34  1  0.55690000  0.36950000  0.37059000  1
  O  O35  1  0.44310000  0.63050000  0.62941000  1
  O  O36  1  0.67550000  0.33020000  0.40421000  1
  O  O37  1  0.32450000  0.66980000  0.59579000  1
  O  O38  1  0.53820000  0.43650000  0.17010000  1
  O  O39  1  0.46180000  0.56350000  0.82990000  1
  O  O40  1  0.63920000  0.46270000  0.13021000  1
  O  O41  1  0.36080000  0.53730000  0.86979000  1
  O  O42  1  0.28190000  0.47610000  0.03344000  1
  O  O43  1  0.71810000  0.52390000  0.96656000  1
  O  O44  1  0.33250000  0.44910000  0.11342000  1
  O  O45  1  0.66750000  0.55090000  0.88658000  1
  O  O46  1  0.38980000  0.74970000  0.41650000  1
  O  O47  1  0.61020000  0.25030000  0.58350000  1
  O  O48  1  0.29720000  0.73750000  0.47510000  1
  O  O49  1  0.70280000  0.26250000  0.52490000  1
  O  O50  1  0.42190000  0.34460000  0.44850000  1
  O  O51  1  0.57810000  0.65540000  0.55150000  1
  O  O52  1  0.39400000  0.47060000  0.50769000  1
  O  O53  1  0.60600000  0.52940000  0.49231000  1
  O  O54  1  0.40820000  0.58560000  0.44180000  1
  O  O55  1  0.59180000  0.41440000  0.55820000  1
  O  O56  1  0.55630000  0.48990000  0.41979000  1
  O  O57  1  0.44370000  0.51010000  0.58021000  1
  O  O58  1  0.49710000  0.55780000  0.06638000  1
  O  O59  1  0.50290000  0.44220000  0.93362000  1
  O  O60  1  0.58170000  0.40400000  0.06131000  1
  O  O61  1  0.41830000  0.59600000  0.93869000  1
  O  O62  1  0.45960000  0.40370000  0.02782000  1
  O  O63  1  0.54040000  0.59630000  0.97218000  1
  O  O64  1  0.37610000  0.55710000  0.03250000  1
  O  O65  1  0.62390000  0.44290000  0.96750000  1
  O  O66  1  0.45850000  0.62320000  0.51467000  1
  O  O67  1  0.54150000  0.37680000  0.48533000  1
  O  O68  1  0.75970000  0.38360000  0.52950000  1
  O  O69  1  0.24030000  0.61640000  0.47050000  1
  O  O70  1  0.69880000  0.46990000  0.58780000  1
  O  O71  1  0.30120000  0.53010000  0.41220000  1
  O  O72  1  0.39960000  0.42440000  0.34460000  1
  O  O73  1  0.60040000  0.57560000  0.65540000  1
  O  O74  1  0.47990000  0.72140000  0.03780000  1
  O  O75  1  0.52010000  0.27860000  0.96220000  1
  O  O76  1  0.31510000  0.81450000  0.01200000  1
  O  O77  1  0.68490000  0.18550000  0.98800000  1
  O  O78  1  0.63800000  0.59220000  0.38220000  1
  O  O79  1  0.36200000  0.40780000  0.61780000  1
  O  O80  1  0.45140000  0.28720000  0.54620000  1
  O  O81  1  0.54860000  0.71280000  0.45380000  1
  O  O82  1  0.72890000  0.45280000  0.41200000  1
  O  O83  1  0.27110000  0.54720000  0.58800000  1
  C  C84  1  0.44140000  0.61430000  0.31950000  1
  C  C85  1  0.55860000  0.38570000  0.68050000  1
  C  C86  1  0.40030000  0.66450000  0.26820000  1
  C  C87  1  0.59970000  0.33550000  0.73180000  1
  C  C88  1  0.39420000  0.62880000  0.22920000  1
  C  C89  1  0.60580000  0.37120000  0.77080000  1
  H  H90  1  0.41398900  0.57311600  0.23491300  1
  H  H91  1  0.58601100  0.42688400  0.76508700  1
  C  C92  1  0.35900000  0.67540000  0.18200000  1
  C  C93  1  0.64100000  0.32460000  0.81800000  1
  C  C94  1  0.32620000  0.75940000  0.17440000  1
  C  C95  1  0.67380000  0.24060000  0.82560000  1
  H  H96  1  0.30272500  0.79106600  0.14252200  1
  H  H97  1  0.69727500  0.20893400  0.85747800  1
  C  C98  1  0.32850000  0.79570000  0.21430000  1
  C  C99  1  0.67150000  0.20430000  0.78570000  1
  C  C100  1  0.36820000  0.74750000  0.26150000  1
  C  C101  1  0.63180000  0.25250000  0.73850000  1
  H  H102  1  0.37279800  0.77120900  0.28771400  1
  H  H103  1  0.62720200  0.22879100  0.71228600  1
  C  C104  1  0.35870000  0.63750000  0.13740000  1
  C  C105  1  0.64130000  0.36250000  0.86260000  1
  C  C106  1  0.77150000  0.30300000  0.04720000  1
  C  C107  1  0.22850000  0.69700000  0.95280000  1
  C  C108  1  0.84900000  0.23960000  0.07200000  1
  C  C109  1  0.15100000  0.76040000  0.92800000  1
  C  C110  1  0.87780000  0.15970000  0.06920000  1
  C  C111  1  0.12220000  0.84030000  0.93080000  1
  H  H112  1  0.84971300  0.14491400  0.05068700  1
  H  H113  1  0.15028700  0.85508600  0.94931300  1
  C  C114  1  0.94930000  0.10040000  0.09420000  1
  C  C115  1  0.05070000  0.89960000  0.90580000  1
  H  H116  1  0.96873700  0.04670400  0.09135700  1
  H  H117  1  0.03126300  0.95329600  0.90864300  1
  C  C118  1  0.99170000  0.12040000  0.12320000  1
  C  C119  1  0.00830000  0.87960000  0.87680000  1
  C  C120  1  0.96180000  0.20090000  0.12580000  1
  C  C121  1  0.03820000  0.79910000  0.87420000  1
  H  H122  1  0.98950600  0.21559400  0.14470700  1
  H  H123  1  0.01049400  0.78440600  0.85529300  1
  C  C124  1  0.89170000  0.26030000  0.10090000  1
  C  C125  1  0.10830000  0.73970000  0.89910000  1
  H  H126  1  0.87284300  0.31405900  0.10342900  1
  H  H127  1  0.12715700  0.68594100  0.89657100  1
  C  C128  1  0.06730000  0.05750000  0.14900000  1
  C  C129  1  0.93270000  0.94250000  0.85100000  1
  C  C130  1  0.07840000  0.97890000  0.16700000  1
  C  C131  1  0.92160000  0.02110000  0.83300000  1
  H  H132  1  0.03547500  0.96843700  0.16528400  1
  H  H133  1  0.96452500  0.03156300  0.83471600  1
  C  C134  1  0.15090000  0.91560000  0.18730000  1
  C  C135  1  0.84910000  0.08440000  0.81270000  1
  H  H136  1  0.15702300  0.86360100  0.19876600  1
  H  H137  1  0.84297700  0.13639900  0.80123400  1
  C  C138  1  0.21410000  0.93280000  0.19000000  1
  C  C139  1  0.78590000  0.06720000  0.81000000  1
  C  C140  1  0.20350000  0.01190000  0.17420000  1
  C  C141  1  0.79650000  0.98810000  0.82580000  1
  C  C142  1  0.12950000  0.07450000  0.15380000  1
  C  C143  1  0.87050000  0.92550000  0.84620000  1
  H  H144  1  0.12222400  0.12711200  0.14352900  1
  H  H145  1  0.87777600  0.87288800  0.85647100  1
  C  C146  1  0.52510000  0.26160000  0.11160000  1
  C  C147  1  0.47490000  0.73840000  0.88840000  1
  C  C148  1  0.49340000  0.20120000  0.12980000  1
  C  C149  1  0.50660000  0.79880000  0.87020000  1
  C  C150  1  0.41970000  0.22470000  0.15760000  1
  C  C151  1  0.58030000  0.77530000  0.84240000  1
  H  H152  1  0.39262300  0.27638800  0.16568200  1
  H  H153  1  0.60737700  0.72361200  0.83431800  1
  C  C154  1  0.38480000  0.17320000  0.17400000  1
  C  C155  1  0.61520000  0.82680000  0.82600000  1
  H  H156  1  0.33544700  0.19014000  0.19262400  1
  H  H157  1  0.66455300  0.80986000  0.80737600  1
  C  C158  1  0.42620000  0.09500000  0.16160000  1
  C  C159  1  0.57380000  0.90500000  0.83840000  1
  C  C160  1  0.50170000  0.07150000  0.13410000  1
  C  C161  1  0.49830000  0.92850000  0.86590000  1
  H  H162  1  0.53010900  0.01947100  0.12659600  1
  H  H163  1  0.46989100  0.98052900  0.87340400  1
  C  C164  1  0.53470000  0.12480000  0.11790000  1
  C  C165  1  0.46530000  0.87520000  0.88210000  1
  H  H166  1  0.58415800  0.10865300  0.09936900  1
  H  H167  1  0.41584200  0.89134700  0.90063100  1
  C  C168  1  0.39280000  0.03770000  0.17620000  1
  C  C169  1  0.60720000  0.96230000  0.82380000  1
  C  C170  1  0.30990000  0.06450000  0.16960000  1
  C  C171  1  0.69010000  0.93550000  0.83040000  1
  H  H172  1  0.27528100  0.11885900  0.15773800  1
  H  H173  1  0.72471900  0.88114100  0.84226200  1
  C  C174  1  0.28070000  0.00800000  0.18120000  1
  C  C175  1  0.71930000  0.99200000  0.81880000  1
  C  C176  1  0.33390000  0.92630000  0.20060000  1
  C  C177  1  0.66610000  0.07370000  0.79940000  1
  C  C178  1  0.41410000  0.90020000  0.20960000  1
  C  C179  1  0.58590000  0.09980000  0.79040000  1
  H  H180  1  0.44818700  0.84652600  0.22357700  1
  H  H181  1  0.55181300  0.15347400  0.77642300  1
  C  C182  1  0.44200000  0.95680000  0.19700000  1
  C  C183  1  0.55800000  0.04320000  0.80300000  1
  H  H184  1  0.49597500  0.94018300  0.20264000  1
  H  H185  1  0.50402500  0.05981700  0.79736000  1
  C  C186  1  0.63060000  0.34900000  0.36730000  1
  C  C187  1  0.36940000  0.65100000  0.63270000  1
  C  C188  1  0.66840000  0.34940000  0.31200000  1
  C  C189  1  0.33160000  0.65060000  0.68800000  1
  C  C190  1  0.75170000  0.31510000  0.30670000  1
  C  C191  1  0.24830000  0.68490000  0.69330000  1
  H  H192  1  0.78298300  0.29157100  0.33663700  1
  H  H193  1  0.21701700  0.70842900  0.66336300  1
  C  C194  1  0.78970000  0.31560000  0.25580000  1
  C  C195  1  0.21030000  0.68440000  0.74420000  1
  C  C196  1  0.74080000  0.35570000  0.21090000  1
  C  C197  1  0.25920000  0.64430000  0.78910000  1
  H  H198  1  0.76451700  0.35757100  0.17716700  1
  H  H199  1  0.23548300  0.64242900  0.82283300  1
  C  C200  1  0.65780000  0.39180000  0.21750000  1
  C  C201  1  0.34220000  0.60820000  0.78250000  1
  C  C202  1  0.62080000  0.38470000  0.26780000  1
  C  C203  1  0.37920000  0.61530000  0.73220000  1
  H  H204  1  0.56511000  0.40340700  0.27133800  1
  H  H205  1  0.43489000  0.59659300  0.72866200  1
  C  C206  1  0.60570000  0.43430000  0.16900000  1
  C  C207  1  0.39430000  0.56570000  0.83100000  1
  C  C208  1  0.31960000  0.77160000  0.43400000  1
  C  C209  1  0.68040000  0.22840000  0.56600000  1
  C  C210  1  0.25260000  0.84770000  0.40460000  1
  C  C211  1  0.74740000  0.15230000  0.59540000  1
  C  C212  1  0.26700000  0.88930000  0.35790000  1
  C  C213  1  0.73300000  0.11070000  0.64210000  1
  H  H214  1  0.31986300  0.87159800  0.34449600  1
  H  H215  1  0.68013700  0.12840200  0.65550400  1
  C  C216  1  0.20450000  0.95770000  0.32960000  1
  C  C217  1  0.79550000  0.04230000  0.67040000  1
  H  H218  1  0.21616000  0.98397200  0.29758000  1
  H  H219  1  0.78384000  0.01602800  0.70242000  1
  C  C220  1  0.12530000  0.98630000  0.34940000  1
  C  C221  1  0.87470000  0.01370000  0.65060000  1
  C  C222  1  0.11100000  0.94460000  0.39740000  1
  C  C223  1  0.88900000  0.05540000  0.60260000  1
  H  H224  1  0.05864000  0.96279800  0.41183500  1
  H  H225  1  0.94136000  0.03720200  0.58816500  1
  C  C226  1  0.17380000  0.87650000  0.42370000  1
  C  C227  1  0.82620000  0.12350000  0.57630000  1
  H  H228  1  0.16254000  0.84927100  0.45546100  1
  H  H229  1  0.83746000  0.15072900  0.54453900  1
  C  C230  1  0.05750000  0.06190000  0.32160000  1
  C  C231  1  0.94250000  0.93810000  0.67840000  1
  C  C232  1  0.07210000  0.12330000  0.29120000  1
  C  C233  1  0.92790000  0.87670000  0.70880000  1
  H  H234  1  0.12438200  0.11727500  0.28667900  1
  H  H235  1  0.87561800  0.88272500  0.71332100  1
  C  C236  1  0.00860000  0.19310000  0.26780000  1
  C  C237  1  0.99140000  0.80690000  0.73220000  1
  C  C238  1  0.92850000  0.20410000  0.27670000  1
  C  C239  1  0.07150000  0.79590000  0.72330000  1
  C  C240  1  0.91340000  0.14120000  0.30600000  1
  C  C241  1  0.08660000  0.85880000  0.69400000  1
  H  H242  1  0.86122700  0.14687500  0.31060400  1
  H  H243  1  0.13877300  0.85312500  0.68939600  1
  C  C244  1  0.97790000  0.07200000  0.32710000  1
  C  C245  1  0.02210000  0.92800000  0.67290000  1
  H  H246  1  0.96915900  0.02942200  0.34597700  1
  H  H247  1  0.03084100  0.97057800  0.65402300  1
  C  C248  1  0.28160000  0.45420000  0.08360000  1
  C  C249  1  0.71840000  0.54580000  0.91640000  1
  C  C250  1  0.21540000  0.43590000  0.10810000  1
  C  C251  1  0.78460000  0.56410000  0.89190000  1
  C  C252  1  0.14990000  0.45520000  0.08010000  1
  C  C253  1  0.85010000  0.54480000  0.91990000  1
  H  H254  1  0.14454800  0.48405300  0.04563800  1
  H  H255  1  0.85545200  0.51594700  0.95436200  1
  C  C256  1  0.09070000  0.43230000  0.10250000  1
  C  C257  1  0.90930000  0.56770000  0.89750000  1
  H  H258  1  0.04726800  0.44463700  0.08248900  1
  H  H259  1  0.95273200  0.55536300  0.91751100  1
  C  C260  1  0.09650000  0.39100000  0.15450000  1
  C  C261  1  0.90350000  0.60900000  0.84550000  1
  C  C262  1  0.16110000  0.37460000  0.18260000  1
  C  C263  1  0.83890000  0.62540000  0.81740000  1
  H  H264  1  0.16573700  0.34790600  0.21759900  1
  H  H265  1  0.83426300  0.65209400  0.78240100  1
  C  C266  1  0.21920000  0.39690000  0.16010000  1
  C  C267  1  0.78080000  0.60310000  0.83990000  1
  H  H268  1  0.26203700  0.38534100  0.18030700  1
  H  H269  1  0.73796300  0.61465900  0.81969300  1
  C  C270  1  0.03540000  0.36520000  0.17810000  1
  C  C271  1  0.96460000  0.63480000  0.82190000  1
  C  C272  1  0.95170000  0.41500000  0.16850000  1
  C  C273  1  0.04830000  0.58500000  0.83150000  1
  H  H274  1  0.93569400  0.46474400  0.14594700  1
  H  H275  1  0.06430600  0.53525600  0.85405300  1
  C  C276  1  0.89330000  0.39350000  0.19060000  1
  C  C277  1  0.10670000  0.60650000  0.80940000  1
  H  H278  1  0.83863400  0.42776500  0.18426500  1
  H  H279  1  0.16136600  0.57223500  0.81573500  1
  C  C280  1  0.91960000  0.31810000  0.22280000  1
  C  C281  1  0.08040000  0.68190000  0.77720000  1
  C  C282  1  0.00160000  0.26660000  0.23370000  1
  C  C283  1  0.99840000  0.73340000  0.76630000  1
  C  C284  1  0.05980000  0.29130000  0.21130000  1
  C  C285  1  0.94020000  0.70870000  0.78870000  1
  H  H286  1  0.11421000  0.25805600  0.21870500  1
  H  H287  1  0.88579000  0.74194400  0.78129500  1
  C  C288  1  0.70920000  0.52240000  0.38310000  1
  C  C289  1  0.29080000  0.47760000  0.61690000  1
  C  C290  1  0.77800000  0.52990000  0.34690000  1
  C  C291  1  0.22200000  0.47010000  0.65310000  1
  C  C292  1  0.77550000  0.60530000  0.33310000  1
  C  C293  1  0.22450000  0.39470000  0.66690000  1
  C  C294  1  0.83870000  0.61370000  0.30320000  1
  C  C295  1  0.16130000  0.38630000  0.69680000  1
  H  H296  1  0.83702600  0.66417800  0.29398000  1
  H  H297  1  0.16297400  0.33582200  0.70602000  1
  C  C298  1  0.90440000  0.54670000  0.28700000  1
  C  C299  1  0.09560000  0.45330000  0.71300000  1
  H  H300  1  0.94669500  0.55236600  0.26697100  1
  H  H301  1  0.05330500  0.44763400  0.73302900  1
  C  C302  1  0.90690000  0.47130000  0.30080000  1
  C  C303  1  0.09310000  0.52870000  0.69920000  1
  H  H304  1  0.95089600  0.42651300  0.28995800  1
  H  H305  1  0.04910400  0.57348700  0.71004200  1
  C  C306  1  0.84370000  0.46290000  0.33070000  1
  C  C307  1  0.15630000  0.53710000  0.66930000  1
  C  C308  1  0.34180000  0.47310000  0.31660000  1
  C  C309  1  0.65820000  0.52690000  0.68340000  1
  H  H310  1  0.30850800  0.52323800  0.32609200  1
  H  H311  1  0.69149200  0.47676200  0.67390800  1
  C  C312  1  0.25160000  0.51770000  0.24330000  1
  C  C313  1  0.74840000  0.48230000  0.75670000  1
  H  H314  1  0.22188800  0.56108300  0.26268800  1
  H  H315  1  0.77811200  0.43891700  0.73731200  1
  H  H316  1  0.26692000  0.53823300  0.20889700  1
  H  H317  1  0.73308000  0.46176700  0.79110300  1
  H  H318  1  0.21839000  0.49379200  0.23975000  1
  H  H319  1  0.78161000  0.50620800  0.76025000  1
  C  C320  1  0.37700000  0.38770000  0.25110000  1
  C  C321  1  0.62300000  0.61230000  0.74890000  1
  H  H322  1  0.35506100  0.38636000  0.22018600  1
  H  H323  1  0.64493900  0.61364000  0.77981400  1
  H  H324  1  0.42790800  0.38797500  0.24192900  1
  H  H325  1  0.57209200  0.61202500  0.75807100  1
  H  H326  1  0.38499700  0.34081700  0.27743200  1
  H  H327  1  0.61500300  0.65918300  0.72256800  1
  C  C328  1  0.76110000  0.41010000  0.56870000  1
  C  C329  1  0.23890000  0.58990000  0.43130000  1
  C  C330  1  0.42820000  0.29300000  0.49350000  1
  C  C331  1  0.57180000  0.70700000  0.50650000  1
  H  H332  1  0.81813300  0.38182400  0.58888600  1
  H  H333  1  0.18186700  0.61817600  0.41111400  1
  H  H334  1  0.47089800  0.23447000  0.48323900  1
  H  H335  1  0.52910200  0.76553000  0.51676100  1
  H  H336  1  0.84563100  0.40384100  0.34144300  1
  H  H337  1  0.15436900  0.59615900  0.65855700  1
  H  H338  1  0.72398700  0.65780600  0.34572800  1
  H  H339  1  0.27601300  0.34219400  0.65427200  1
