# generated using pymatgen
data_Eu3H26C41NO16
_symmetry_space_group_name_H-M   'P 1'
_cell_length_a   15.41900000
_cell_length_b   33.90480000
_cell_length_c   35.58200000
_cell_angle_alpha   90.00000000
_cell_angle_beta   90.00000000
_cell_angle_gamma   90.00000000
_symmetry_Int_Tables_number   1
_chemical_formula_structural   Eu3H26C41NO16
_chemical_formula_sum   'Eu24 H208 C328 N8 O128'
_cell_volume   18601.49075272
_cell_formula_units_Z   8
loop_
 _symmetry_equiv_pos_site_id
 _symmetry_equiv_pos_as_xyz
  1  'x, y, z'
loop_
 _atom_site_type_symbol
 _atom_site_label
 _atom_site_symmetry_multiplicity
 _atom_site_fract_x
 _atom_site_fract_y
 _atom_site_fract_z
 _atom_site_occupancy
  C  C0  1  0.35990000  0.65220000  0.40620000  1
  C  C1  1  0.64010000  0.34780000  0.40620000  1
  C  C2  1  0.64010000  0.65220000  0.59380000  1
  C  C3  1  0.35990000  0.34780000  0.59380000  1
  C  C4  1  0.85990000  0.15220000  0.90620000  1
  C  C5  1  0.14010000  0.84780000  0.90620000  1
  C  C6  1  0.14010000  0.15220000  0.09380000  1
  C  C7  1  0.85990000  0.84780000  0.09380000  1
  C  C8  1  0.64010000  0.34780000  0.59380000  1
  C  C9  1  0.35990000  0.65220000  0.59380000  1
  C  C10  1  0.35990000  0.34780000  0.40620000  1
  C  C11  1  0.64010000  0.65220000  0.40620000  1
  C  C12  1  0.14010000  0.84780000  0.09380000  1
  C  C13  1  0.85990000  0.15220000  0.09380000  1
  C  C14  1  0.85990000  0.84780000  0.90620000  1
  C  C15  1  0.14010000  0.15220000  0.90620000  1
  C  C16  1  0.33490000  0.62880000  0.37290000  1
  C  C17  1  0.66510000  0.37120000  0.37290000  1
  C  C18  1  0.66510000  0.62880000  0.62710000  1
  C  C19  1  0.33490000  0.37120000  0.62710000  1
  C  C20  1  0.83490000  0.12880000  0.87290000  1
  C  C21  1  0.16510000  0.87120000  0.87290000  1
  C  C22  1  0.16510000  0.12880000  0.12710000  1
  C  C23  1  0.83490000  0.87120000  0.12710000  1
  C  C24  1  0.66510000  0.37120000  0.62710000  1
  C  C25  1  0.33490000  0.62880000  0.62710000  1
  C  C26  1  0.33490000  0.37120000  0.37290000  1
  C  C27  1  0.66510000  0.62880000  0.37290000  1
  C  C28  1  0.16510000  0.87120000  0.12710000  1
  C  C29  1  0.83490000  0.12880000  0.12710000  1
  C  C30  1  0.83490000  0.87120000  0.87290000  1
  C  C31  1  0.16510000  0.12880000  0.87290000  1
  C  C32  1  0.27290000  0.60010000  0.37520000  1
  C  C33  1  0.72710000  0.39990000  0.37520000  1
  C  C34  1  0.72710000  0.60010000  0.62480000  1
  C  C35  1  0.27290000  0.39990000  0.62480000  1
  C  C36  1  0.77290000  0.10010000  0.87520000  1
  C  C37  1  0.22710000  0.89990000  0.87520000  1
  C  C38  1  0.22710000  0.10010000  0.12480000  1
  C  C39  1  0.77290000  0.89990000  0.12480000  1
  C  C40  1  0.72710000  0.39990000  0.62480000  1
  C  C41  1  0.27290000  0.60010000  0.62480000  1
  C  C42  1  0.27290000  0.39990000  0.37520000  1
  C  C43  1  0.72710000  0.60010000  0.37520000  1
  C  C44  1  0.22710000  0.89990000  0.12480000  1
  C  C45  1  0.77290000  0.10010000  0.12480000  1
  C  C46  1  0.77290000  0.89990000  0.87520000  1
  C  C47  1  0.22710000  0.10010000  0.87520000  1
  H  H48  1  0.24965000  0.59305000  0.39834000  1
  H  H49  1  0.75035000  0.40695000  0.39834000  1
  H  H50  1  0.75035000  0.59305000  0.60166000  1
  H  H51  1  0.24965000  0.40695000  0.60166000  1
  H  H52  1  0.74965000  0.09305000  0.89834000  1
  H  H53  1  0.25035000  0.90695000  0.89834000  1
  H  H54  1  0.25035000  0.09305000  0.10166000  1
  H  H55  1  0.74965000  0.90695000  0.10166000  1
  H  H56  1  0.75035000  0.40695000  0.60166000  1
  H  H57  1  0.24965000  0.59305000  0.60166000  1
  H  H58  1  0.24965000  0.40695000  0.39834000  1
  H  H59  1  0.75035000  0.59305000  0.39834000  1
  H  H60  1  0.25035000  0.90695000  0.10166000  1
  H  H61  1  0.74965000  0.09305000  0.10166000  1
  H  H62  1  0.74965000  0.90695000  0.89834000  1
  H  H63  1  0.25035000  0.09305000  0.89834000  1
  C  C64  1  0.24410000  0.58090000  0.34190000  1
  C  C65  1  0.75590000  0.41910000  0.34190000  1
  C  C66  1  0.75590000  0.58090000  0.65810000  1
  C  C67  1  0.24410000  0.41910000  0.65810000  1
  C  C68  1  0.74410000  0.08090000  0.84190000  1
  C  C69  1  0.25590000  0.91910000  0.84190000  1
  C  C70  1  0.25590000  0.08090000  0.15810000  1
  C  C71  1  0.74410000  0.91910000  0.15810000  1
  C  C72  1  0.75590000  0.41910000  0.65810000  1
  C  C73  1  0.24410000  0.58090000  0.65810000  1
  C  C74  1  0.24410000  0.41910000  0.34190000  1
  C  C75  1  0.75590000  0.58090000  0.34190000  1
  C  C76  1  0.25590000  0.91910000  0.15810000  1
  C  C77  1  0.74410000  0.08090000  0.15810000  1
  C  C78  1  0.74410000  0.91910000  0.84190000  1
  C  C79  1  0.25590000  0.08090000  0.84190000  1
  H  H80  1  0.19922000  0.56267000  0.34299000  1
  H  H81  1  0.80078000  0.43733000  0.34299000  1
  H  H82  1  0.80078000  0.56267000  0.65701000  1
  H  H83  1  0.19922000  0.43733000  0.65701000  1
  H  H84  1  0.69922000  0.06267000  0.84299000  1
  H  H85  1  0.30078000  0.93733000  0.84299000  1
  H  H86  1  0.30078000  0.06267000  0.15701000  1
  H  H87  1  0.69922000  0.93733000  0.15701000  1
  H  H88  1  0.80078000  0.43733000  0.65701000  1
  H  H89  1  0.19922000  0.56267000  0.65701000  1
  H  H90  1  0.19922000  0.43733000  0.34299000  1
  H  H91  1  0.80078000  0.56267000  0.34299000  1
  H  H92  1  0.30078000  0.93733000  0.15701000  1
  H  H93  1  0.69922000  0.06267000  0.15701000  1
  H  H94  1  0.69922000  0.93733000  0.84299000  1
  H  H95  1  0.30078000  0.06267000  0.84299000  1
  C  C96  1  0.28320000  0.58960000  0.30750000  1
  C  C97  1  0.71680000  0.41040000  0.30750000  1
  C  C98  1  0.71680000  0.58960000  0.69250000  1
  C  C99  1  0.28320000  0.41040000  0.69250000  1
  C  C100  1  0.78320000  0.08960000  0.80750000  1
  C  C101  1  0.21680000  0.91040000  0.80750000  1
  C  C102  1  0.21680000  0.08960000  0.19250000  1
  C  C103  1  0.78320000  0.91040000  0.19250000  1
  C  C104  1  0.71680000  0.41040000  0.69250000  1
  C  C105  1  0.28320000  0.58960000  0.69250000  1
  C  C106  1  0.28320000  0.41040000  0.30750000  1
  C  C107  1  0.71680000  0.58960000  0.30750000  1
  C  C108  1  0.21680000  0.91040000  0.19250000  1
  C  C109  1  0.78320000  0.08960000  0.19250000  1
  C  C110  1  0.78320000  0.91040000  0.80750000  1
  C  C111  1  0.21680000  0.08960000  0.80750000  1
  C  C112  1  0.34310000  0.61790000  0.30650000  1
  C  C113  1  0.65690000  0.38210000  0.30650000  1
  C  C114  1  0.65690000  0.61790000  0.69350000  1
  C  C115  1  0.34310000  0.38210000  0.69350000  1
  C  C116  1  0.84310000  0.11790000  0.80650000  1
  C  C117  1  0.15690000  0.88210000  0.80650000  1
  C  C118  1  0.15690000  0.11790000  0.19350000  1
  C  C119  1  0.84310000  0.88210000  0.19350000  1
  C  C120  1  0.65690000  0.38210000  0.69350000  1
  C  C121  1  0.34310000  0.61790000  0.69350000  1
  C  C122  1  0.34310000  0.38210000  0.30650000  1
  C  C123  1  0.65690000  0.61790000  0.30650000  1
  C  C124  1  0.15690000  0.88210000  0.19350000  1
  C  C125  1  0.84310000  0.11790000  0.19350000  1
  C  C126  1  0.84310000  0.88210000  0.80650000  1
  C  C127  1  0.15690000  0.11790000  0.80650000  1
  H  H128  1  0.36564000  0.62556000  0.28339000  1
  H  H129  1  0.63436000  0.37444000  0.28339000  1
  H  H130  1  0.63436000  0.62556000  0.71661000  1
  H  H131  1  0.36564000  0.37444000  0.71661000  1
  H  H132  1  0.86564000  0.12556000  0.78339000  1
  H  H133  1  0.13436000  0.87444000  0.78339000  1
  H  H134  1  0.13436000  0.12556000  0.21661000  1
  H  H135  1  0.86564000  0.87444000  0.21661000  1
  H  H136  1  0.63436000  0.37444000  0.71661000  1
  H  H137  1  0.36564000  0.62556000  0.71661000  1
  H  H138  1  0.36564000  0.37444000  0.28339000  1
  H  H139  1  0.63436000  0.62556000  0.28339000  1
  H  H140  1  0.13436000  0.87444000  0.21661000  1
  H  H141  1  0.86564000  0.12556000  0.21661000  1
  H  H142  1  0.86564000  0.87444000  0.78339000  1
  H  H143  1  0.13436000  0.12556000  0.78339000  1
  C  C144  1  0.37410000  0.63700000  0.34010000  1
  C  C145  1  0.62590000  0.36300000  0.34010000  1
  C  C146  1  0.62590000  0.63700000  0.65990000  1
  C  C147  1  0.37410000  0.36300000  0.65990000  1
  C  C148  1  0.87410000  0.13700000  0.84010000  1
  C  C149  1  0.12590000  0.86300000  0.84010000  1
  C  C150  1  0.12590000  0.13700000  0.15990000  1
  C  C151  1  0.87410000  0.86300000  0.15990000  1
  C  C152  1  0.62590000  0.36300000  0.65990000  1
  C  C153  1  0.37410000  0.63700000  0.65990000  1
  C  C154  1  0.37410000  0.36300000  0.34010000  1
  C  C155  1  0.62590000  0.63700000  0.34010000  1
  C  C156  1  0.12590000  0.86300000  0.15990000  1
  C  C157  1  0.87410000  0.13700000  0.15990000  1
  C  C158  1  0.87410000  0.86300000  0.84010000  1
  C  C159  1  0.12590000  0.13700000  0.84010000  1
  H  H160  1  0.42021000  0.65465000  0.33903000  1
  H  H161  1  0.57979000  0.34535000  0.33903000  1
  H  H162  1  0.57979000  0.65465000  0.66097000  1
  H  H163  1  0.42021000  0.34535000  0.66097000  1
  H  H164  1  0.92021000  0.15465000  0.83903000  1
  H  H165  1  0.07979000  0.84535000  0.83903000  1
  H  H166  1  0.07979000  0.15465000  0.16097000  1
  H  H167  1  0.92021000  0.84535000  0.16097000  1
  H  H168  1  0.57979000  0.34535000  0.66097000  1
  H  H169  1  0.42021000  0.65465000  0.66097000  1
  H  H170  1  0.42021000  0.34535000  0.33903000  1
  H  H171  1  0.57979000  0.65465000  0.33903000  1
  H  H172  1  0.07979000  0.84535000  0.16097000  1
  H  H173  1  0.92021000  0.15465000  0.16097000  1
  H  H174  1  0.92021000  0.84535000  0.83903000  1
  H  H175  1  0.07979000  0.15465000  0.83903000  1
  C  C176  1  0.25490000  0.57380000  0.27090000  1
  C  C177  1  0.74510000  0.42620000  0.27090000  1
  C  C178  1  0.74510000  0.57380000  0.72910000  1
  C  C179  1  0.25490000  0.42620000  0.72910000  1
  C  C180  1  0.75490000  0.07380000  0.77090000  1
  C  C181  1  0.24510000  0.92620000  0.77090000  1
  C  C182  1  0.24510000  0.07380000  0.22910000  1
  C  C183  1  0.75490000  0.92620000  0.22910000  1
  C  C184  1  0.74510000  0.42620000  0.72910000  1
  C  C185  1  0.25490000  0.57380000  0.72910000  1
  C  C186  1  0.25490000  0.42620000  0.27090000  1
  C  C187  1  0.74510000  0.57380000  0.27090000  1
  C  C188  1  0.24510000  0.92620000  0.22910000  1
  C  C189  1  0.75490000  0.07380000  0.22910000  1
  C  C190  1  0.75490000  0.92620000  0.77090000  1
  C  C191  1  0.24510000  0.07380000  0.77090000  1
  C  C192  1  0.24840000  0.53360000  0.26180000  1
  C  C193  1  0.75160000  0.46640000  0.26180000  1
  C  C194  1  0.75160000  0.53360000  0.73820000  1
  C  C195  1  0.24840000  0.46640000  0.73820000  1
  C  C196  1  0.74840000  0.03360000  0.76180000  1
  C  C197  1  0.25160000  0.96640000  0.76180000  1
  C  C198  1  0.25160000  0.03360000  0.23820000  1
  C  C199  1  0.74840000  0.96640000  0.23820000  1
  C  C200  1  0.75160000  0.46640000  0.73820000  1
  C  C201  1  0.24840000  0.53360000  0.73820000  1
  C  C202  1  0.24840000  0.46640000  0.26180000  1
  C  C203  1  0.75160000  0.53360000  0.26180000  1
  C  C204  1  0.25160000  0.96640000  0.23820000  1
  C  C205  1  0.74840000  0.03360000  0.23820000  1
  C  C206  1  0.74840000  0.96640000  0.76180000  1
  C  C207  1  0.25160000  0.03360000  0.76180000  1
  C  C208  1  0.22310000  0.52120000  0.22560000  1
  C  C209  1  0.77690000  0.47880000  0.22560000  1
  C  C210  1  0.77690000  0.52120000  0.77440000  1
  C  C211  1  0.22310000  0.47880000  0.77440000  1
  C  C212  1  0.72310000  0.02120000  0.72560000  1
  C  C213  1  0.27690000  0.97880000  0.72560000  1
  C  C214  1  0.27690000  0.02120000  0.27440000  1
  C  C215  1  0.72310000  0.97880000  0.27440000  1
  C  C216  1  0.77690000  0.47880000  0.77440000  1
  C  C217  1  0.22310000  0.52120000  0.77440000  1
  C  C218  1  0.22310000  0.47880000  0.22560000  1
  C  C219  1  0.77690000  0.52120000  0.22560000  1
  C  C220  1  0.27690000  0.97880000  0.27440000  1
  C  C221  1  0.72310000  0.02120000  0.27440000  1
  C  C222  1  0.72310000  0.97880000  0.72560000  1
  C  C223  1  0.27690000  0.02120000  0.72560000  1
  C  C224  1  0.20910000  0.54780000  0.19690000  1
  C  C225  1  0.79090000  0.45220000  0.19690000  1
  C  C226  1  0.79090000  0.54780000  0.80310000  1
  C  C227  1  0.20910000  0.45220000  0.80310000  1
  C  C228  1  0.70910000  0.04780000  0.69690000  1
  C  C229  1  0.29090000  0.95220000  0.69690000  1
  C  C230  1  0.29090000  0.04780000  0.30310000  1
  C  C231  1  0.70910000  0.95220000  0.30310000  1
  C  C232  1  0.79090000  0.45220000  0.80310000  1
  C  C233  1  0.20910000  0.54780000  0.80310000  1
  C  C234  1  0.20910000  0.45220000  0.19690000  1
  C  C235  1  0.79090000  0.54780000  0.19690000  1
  C  C236  1  0.29090000  0.95220000  0.30310000  1
  C  C237  1  0.70910000  0.04780000  0.30310000  1
  C  C238  1  0.70910000  0.95220000  0.69690000  1
  C  C239  1  0.29090000  0.04780000  0.69690000  1
  H  H240  1  0.19711000  0.53924000  0.17267000  1
  H  H241  1  0.80289000  0.46076000  0.17267000  1
  H  H242  1  0.80289000  0.53924000  0.82733000  1
  H  H243  1  0.19711000  0.46076000  0.82733000  1
  H  H244  1  0.69711000  0.03924000  0.67267000  1
  H  H245  1  0.30289000  0.96076000  0.67267000  1
  H  H246  1  0.30289000  0.03924000  0.32733000  1
  H  H247  1  0.69711000  0.96076000  0.32733000  1
  H  H248  1  0.80289000  0.46076000  0.82733000  1
  H  H249  1  0.19711000  0.53924000  0.82733000  1
  H  H250  1  0.19711000  0.46076000  0.17267000  1
  H  H251  1  0.80289000  0.53924000  0.17267000  1
  H  H252  1  0.30289000  0.96076000  0.32733000  1
  H  H253  1  0.69711000  0.03924000  0.32733000  1
  H  H254  1  0.69711000  0.96076000  0.67267000  1
  H  H255  1  0.30289000  0.03924000  0.67267000  1
  C  C256  1  0.21340000  0.58840000  0.20550000  1
  C  C257  1  0.78660000  0.41160000  0.20550000  1
  C  C258  1  0.78660000  0.58840000  0.79450000  1
  C  C259  1  0.21340000  0.41160000  0.79450000  1
  C  C260  1  0.71340000  0.08840000  0.70550000  1
  C  C261  1  0.28660000  0.91160000  0.70550000  1
  C  C262  1  0.28660000  0.08840000  0.29450000  1
  C  C263  1  0.71340000  0.91160000  0.29450000  1
  C  C264  1  0.78660000  0.41160000  0.79450000  1
  C  C265  1  0.21340000  0.58840000  0.79450000  1
  C  C266  1  0.21340000  0.41160000  0.20550000  1
  C  C267  1  0.78660000  0.58840000  0.20550000  1
  C  C268  1  0.28660000  0.91160000  0.29450000  1
  C  C269  1  0.71340000  0.08840000  0.29450000  1
  C  C270  1  0.71340000  0.91160000  0.70550000  1
  C  C271  1  0.28660000  0.08840000  0.70550000  1
  C  C272  1  0.23790000  0.59970000  0.24190000  1
  C  C273  1  0.76210000  0.40030000  0.24190000  1
  C  C274  1  0.76210000  0.59970000  0.75810000  1
  C  C275  1  0.23790000  0.40030000  0.75810000  1
  C  C276  1  0.73790000  0.09970000  0.74190000  1
  C  C277  1  0.26210000  0.90030000  0.74190000  1
  C  C278  1  0.26210000  0.09970000  0.25810000  1
  C  C279  1  0.73790000  0.90030000  0.25810000  1
  C  C280  1  0.76210000  0.40030000  0.75810000  1
  C  C281  1  0.23790000  0.59970000  0.75810000  1
  C  C282  1  0.23790000  0.40030000  0.24190000  1
  C  C283  1  0.76210000  0.59970000  0.24190000  1
  C  C284  1  0.26210000  0.90030000  0.25810000  1
  C  C285  1  0.73790000  0.09970000  0.25810000  1
  C  C286  1  0.73790000  0.90030000  0.74190000  1
  C  C287  1  0.26210000  0.09970000  0.74190000  1
  H  H288  1  0.24308000  0.62658000  0.24679000  1
  H  H289  1  0.75692000  0.37342000  0.24679000  1
  H  H290  1  0.75692000  0.62658000  0.75321000  1
  H  H291  1  0.24308000  0.37342000  0.75321000  1
  H  H292  1  0.74308000  0.12658000  0.74679000  1
  H  H293  1  0.25692000  0.87342000  0.74679000  1
  H  H294  1  0.25692000  0.12658000  0.25321000  1
  H  H295  1  0.74308000  0.87342000  0.25321000  1
  H  H296  1  0.75692000  0.37342000  0.75321000  1
  H  H297  1  0.24308000  0.62658000  0.75321000  1
  H  H298  1  0.24308000  0.37342000  0.24679000  1
  H  H299  1  0.75692000  0.62658000  0.24679000  1
  H  H300  1  0.25692000  0.87342000  0.25321000  1
  H  H301  1  0.74308000  0.12658000  0.25321000  1
  H  H302  1  0.74308000  0.87342000  0.74679000  1
  H  H303  1  0.25692000  0.12658000  0.74679000  1
  C  C304  1  0.19860000  0.61900000  0.17560000  1
  C  C305  1  0.80140000  0.38100000  0.17560000  1
  C  C306  1  0.80140000  0.61900000  0.82440000  1
  C  C307  1  0.19860000  0.38100000  0.82440000  1
  C  C308  1  0.69860000  0.11900000  0.67560000  1
  C  C309  1  0.30140000  0.88100000  0.67560000  1
  C  C310  1  0.30140000  0.11900000  0.32440000  1
  C  C311  1  0.69860000  0.88100000  0.32440000  1
  C  C312  1  0.80140000  0.38100000  0.82440000  1
  C  C313  1  0.19860000  0.61900000  0.82440000  1
  C  C314  1  0.19860000  0.38100000  0.17560000  1
  C  C315  1  0.80140000  0.61900000  0.17560000  1
  C  C316  1  0.30140000  0.88100000  0.32440000  1
  C  C317  1  0.69860000  0.11900000  0.32440000  1
  C  C318  1  0.69860000  0.88100000  0.67560000  1
  C  C319  1  0.30140000  0.11900000  0.67560000  1
  C  C320  1  0.22800000  0.61490000  0.13930000  1
  C  C321  1  0.77200000  0.38510000  0.13930000  1
  C  C322  1  0.77200000  0.61490000  0.86070000  1
  C  C323  1  0.22800000  0.38510000  0.86070000  1
  C  C324  1  0.72800000  0.11490000  0.63930000  1
  C  C325  1  0.27200000  0.88510000  0.63930000  1
  C  C326  1  0.27200000  0.11490000  0.36070000  1
  C  C327  1  0.72800000  0.88510000  0.36070000  1
  C  C328  1  0.77200000  0.38510000  0.86070000  1
  C  C329  1  0.22800000  0.61490000  0.86070000  1
  C  C330  1  0.22800000  0.38510000  0.13930000  1
  C  C331  1  0.77200000  0.61490000  0.13930000  1
  C  C332  1  0.27200000  0.88510000  0.36070000  1
  C  C333  1  0.72800000  0.11490000  0.36070000  1
  C  C334  1  0.72800000  0.88510000  0.63930000  1
  C  C335  1  0.27200000  0.11490000  0.63930000  1
  H  H336  1  0.26221000  0.59326000  0.13323000  1
  H  H337  1  0.73779000  0.40674000  0.13323000  1
  H  H338  1  0.73779000  0.59326000  0.86677000  1
  H  H339  1  0.26221000  0.40674000  0.86677000  1
  H  H340  1  0.76221000  0.09326000  0.63323000  1
  H  H341  1  0.23779000  0.90674000  0.63323000  1
  H  H342  1  0.23779000  0.09326000  0.36677000  1
  H  H343  1  0.76221000  0.90674000  0.36677000  1
  H  H344  1  0.73779000  0.40674000  0.86677000  1
  H  H345  1  0.26221000  0.59326000  0.86677000  1
  H  H346  1  0.26221000  0.40674000  0.13323000  1
  H  H347  1  0.73779000  0.59326000  0.13323000  1
  H  H348  1  0.23779000  0.90674000  0.36677000  1
  H  H349  1  0.76221000  0.09326000  0.36677000  1
  H  H350  1  0.76221000  0.90674000  0.63323000  1
  H  H351  1  0.23779000  0.09326000  0.63323000  1
  C  C352  1  0.20830000  0.64200000  0.11170000  1
  C  C353  1  0.79170000  0.35800000  0.11170000  1
  C  C354  1  0.79170000  0.64200000  0.88830000  1
  C  C355  1  0.20830000  0.35800000  0.88830000  1
  C  C356  1  0.70830000  0.14200000  0.61170000  1
  C  C357  1  0.29170000  0.85800000  0.61170000  1
  C  C358  1  0.29170000  0.14200000  0.38830000  1
  C  C359  1  0.70830000  0.85800000  0.38830000  1
  C  C360  1  0.79170000  0.35800000  0.88830000  1
  C  C361  1  0.20830000  0.64200000  0.88830000  1
  C  C362  1  0.20830000  0.35800000  0.11170000  1
  C  C363  1  0.79170000  0.64200000  0.11170000  1
  C  C364  1  0.29170000  0.85800000  0.38830000  1
  C  C365  1  0.70830000  0.14200000  0.38830000  1
  C  C366  1  0.70830000  0.85800000  0.61170000  1
  C  C367  1  0.29170000  0.14200000  0.61170000  1
  H  H368  1  0.22703000  0.63813000  0.08713000  1
  H  H369  1  0.77297000  0.36187000  0.08713000  1
  H  H370  1  0.77297000  0.63813000  0.91287000  1
  H  H371  1  0.22703000  0.36187000  0.91287000  1
  H  H372  1  0.72703000  0.13813000  0.58713000  1
  H  H373  1  0.27297000  0.86187000  0.58713000  1
  H  H374  1  0.27297000  0.13813000  0.41287000  1
  H  H375  1  0.72703000  0.86187000  0.41287000  1
  H  H376  1  0.77297000  0.36187000  0.91287000  1
  H  H377  1  0.22703000  0.63813000  0.91287000  1
  H  H378  1  0.22703000  0.36187000  0.08713000  1
  H  H379  1  0.77297000  0.63813000  0.08713000  1
  H  H380  1  0.27297000  0.86187000  0.41287000  1
  H  H381  1  0.72703000  0.13813000  0.41287000  1
  H  H382  1  0.72703000  0.86187000  0.58713000  1
  H  H383  1  0.27297000  0.13813000  0.58713000  1
  C  C384  1  0.15840000  0.67630000  0.12160000  1
  C  C385  1  0.84160000  0.32370000  0.12160000  1
  C  C386  1  0.84160000  0.67630000  0.87840000  1
  C  C387  1  0.15840000  0.32370000  0.87840000  1
  C  C388  1  0.65840000  0.17630000  0.62160000  1
  C  C389  1  0.34160000  0.82370000  0.62160000  1
  C  C390  1  0.34160000  0.17630000  0.37840000  1
  C  C391  1  0.65840000  0.82370000  0.37840000  1
  C  C392  1  0.84160000  0.32370000  0.87840000  1
  C  C393  1  0.15840000  0.67630000  0.87840000  1
  C  C394  1  0.15840000  0.32370000  0.12160000  1
  C  C395  1  0.84160000  0.67630000  0.12160000  1
  C  C396  1  0.34160000  0.82370000  0.37840000  1
  C  C397  1  0.65840000  0.17630000  0.37840000  1
  C  C398  1  0.65840000  0.82370000  0.62160000  1
  C  C399  1  0.34160000  0.17630000  0.62160000  1
  C  C400  1  0.12920000  0.68060000  0.15750000  1
  C  C401  1  0.87080000  0.31940000  0.15750000  1
  C  C402  1  0.87080000  0.68060000  0.84250000  1
  C  C403  1  0.12920000  0.31940000  0.84250000  1
  C  C404  1  0.62920000  0.18060000  0.65750000  1
  C  C405  1  0.37080000  0.81940000  0.65750000  1
  C  C406  1  0.37080000  0.18060000  0.34250000  1
  C  C407  1  0.62920000  0.81940000  0.34250000  1
  C  C408  1  0.87080000  0.31940000  0.84250000  1
  C  C409  1  0.12920000  0.68060000  0.84250000  1
  C  C410  1  0.12920000  0.31940000  0.15750000  1
  C  C411  1  0.87080000  0.68060000  0.15750000  1
  C  C412  1  0.37080000  0.81940000  0.34250000  1
  C  C413  1  0.62920000  0.18060000  0.34250000  1
  C  C414  1  0.62920000  0.81940000  0.65750000  1
  C  C415  1  0.37080000  0.18060000  0.65750000  1
  H  H416  1  0.09626000  0.70259000  0.16383000  1
  H  H417  1  0.90374000  0.29741000  0.16383000  1
  H  H418  1  0.90374000  0.70259000  0.83617000  1
  H  H419  1  0.09626000  0.29741000  0.83617000  1
  H  H420  1  0.59626000  0.20259000  0.66383000  1
  H  H421  1  0.40374000  0.79741000  0.66383000  1
  H  H422  1  0.40374000  0.20259000  0.33617000  1
  H  H423  1  0.59626000  0.79741000  0.33617000  1
  H  H424  1  0.90374000  0.29741000  0.83617000  1
  H  H425  1  0.09626000  0.70259000  0.83617000  1
  H  H426  1  0.09626000  0.29741000  0.16383000  1
  H  H427  1  0.90374000  0.70259000  0.16383000  1
  H  H428  1  0.40374000  0.79741000  0.33617000  1
  H  H429  1  0.59626000  0.20259000  0.33617000  1
  H  H430  1  0.59626000  0.79741000  0.66383000  1
  H  H431  1  0.40374000  0.20259000  0.66383000  1
  C  C432  1  0.14820000  0.65210000  0.18530000  1
  C  C433  1  0.85180000  0.34790000  0.18530000  1
  C  C434  1  0.85180000  0.65210000  0.81470000  1
  C  C435  1  0.14820000  0.34790000  0.81470000  1
  C  C436  1  0.64820000  0.15210000  0.68530000  1
  C  C437  1  0.35180000  0.84790000  0.68530000  1
  C  C438  1  0.35180000  0.15210000  0.31470000  1
  C  C439  1  0.64820000  0.84790000  0.31470000  1
  C  C440  1  0.85180000  0.34790000  0.81470000  1
  C  C441  1  0.14820000  0.65210000  0.81470000  1
  C  C442  1  0.14820000  0.34790000  0.18530000  1
  C  C443  1  0.85180000  0.65210000  0.18530000  1
  C  C444  1  0.35180000  0.84790000  0.31470000  1
  C  C445  1  0.64820000  0.15210000  0.31470000  1
  C  C446  1  0.64820000  0.84790000  0.68530000  1
  C  C447  1  0.35180000  0.15210000  0.68530000  1
  H  H448  1  0.12764000  0.65517000  0.20972000  1
  H  H449  1  0.87236000  0.34483000  0.20972000  1
  H  H450  1  0.87236000  0.65517000  0.79028000  1
  H  H451  1  0.12764000  0.34483000  0.79028000  1
  H  H452  1  0.62764000  0.15517000  0.70972000  1
  H  H453  1  0.37236000  0.84483000  0.70972000  1
  H  H454  1  0.37236000  0.15517000  0.29028000  1
  H  H455  1  0.62764000  0.84483000  0.29028000  1
  H  H456  1  0.87236000  0.34483000  0.79028000  1
  H  H457  1  0.12764000  0.65517000  0.79028000  1
  H  H458  1  0.12764000  0.34483000  0.20972000  1
  H  H459  1  0.87236000  0.65517000  0.20972000  1
  H  H460  1  0.37236000  0.84483000  0.29028000  1
  H  H461  1  0.62764000  0.15517000  0.29028000  1
  H  H462  1  0.62764000  0.84483000  0.70972000  1
  H  H463  1  0.37236000  0.15517000  0.70972000  1
  C  C464  1  0.13480000  0.70550000  0.09160000  1
  C  C465  1  0.86520000  0.29450000  0.09160000  1
  C  C466  1  0.86520000  0.70550000  0.90840000  1
  C  C467  1  0.13480000  0.29450000  0.90840000  1
  C  C468  1  0.63480000  0.20550000  0.59160000  1
  C  C469  1  0.36520000  0.79450000  0.59160000  1
  C  C470  1  0.36520000  0.20550000  0.40840000  1
  C  C471  1  0.63480000  0.79450000  0.40840000  1
  C  C472  1  0.86520000  0.29450000  0.90840000  1
  C  C473  1  0.13480000  0.70550000  0.90840000  1
  C  C474  1  0.13480000  0.29450000  0.09160000  1
  C  C475  1  0.86520000  0.70550000  0.09160000  1
  C  C476  1  0.36520000  0.79450000  0.40840000  1
  C  C477  1  0.63480000  0.20550000  0.40840000  1
  C  C478  1  0.63480000  0.79450000  0.59160000  1
  C  C479  1  0.36520000  0.20550000  0.59160000  1
  C  C480  1  0.50000000  0.58660000  0.50000000  1
  C  C481  1  0.50000000  0.41340000  0.50000000  1
  C  C482  1  0.00000000  0.08660000  0.00000000  1
  C  C483  1  0.00000000  0.91340000  0.00000000  1
  C  C484  1  0.50000000  0.86130000  0.50000000  1
  C  C485  1  0.50000000  0.13870000  0.50000000  1
  C  C486  1  0.00000000  0.36130000  0.00000000  1
  C  C487  1  0.00000000  0.63870000  0.00000000  1
  N  N488  1  0.26150000  0.50000000  0.28430000  1
  N  N489  1  0.73850000  0.50000000  0.28430000  1
  N  N490  1  0.73850000  0.50000000  0.71570000  1
  N  N491  1  0.26150000  0.50000000  0.71570000  1
  N  N492  1  0.76150000  0.00000000  0.78430000  1
  N  N493  1  0.23850000  0.00000000  0.78430000  1
  N  N494  1  0.23850000  0.00000000  0.21570000  1
  N  N495  1  0.76150000  0.00000000  0.21570000  1
  H  H496  1  0.27518000  0.50000000  0.30777000  1
  H  H497  1  0.72482000  0.50000000  0.30777000  1
  H  H498  1  0.72482000  0.50000000  0.69223000  1
  H  H499  1  0.27518000  0.50000000  0.69223000  1
  H  H500  1  0.77517000  0.00000000  0.80777000  1
  H  H501  1  0.22482000  0.00000000  0.80777000  1
  H  H502  1  0.22482000  0.00000000  0.19223000  1
  H  H503  1  0.77517000  0.00000000  0.19223000  1
  O  O504  1  0.40820000  0.68120000  0.39920000  1
  O  O505  1  0.59180000  0.31880000  0.39920000  1
  O  O506  1  0.59180000  0.68120000  0.60080000  1
  O  O507  1  0.40820000  0.31880000  0.60080000  1
  O  O508  1  0.90820000  0.18120000  0.89920000  1
  O  O509  1  0.09180000  0.81880000  0.89920000  1
  O  O510  1  0.09180000  0.18120000  0.10080000  1
  O  O511  1  0.90820000  0.81880000  0.10080000  1
  O  O512  1  0.59180000  0.31880000  0.60080000  1
  O  O513  1  0.40820000  0.68120000  0.60080000  1
  O  O514  1  0.40820000  0.31880000  0.39920000  1
  O  O515  1  0.59180000  0.68120000  0.39920000  1
  O  O516  1  0.09180000  0.81880000  0.10080000  1
  O  O517  1  0.90820000  0.18120000  0.10080000  1
  O  O518  1  0.90820000  0.81880000  0.89920000  1
  O  O519  1  0.09180000  0.18120000  0.89920000  1
  O  O520  1  0.33770000  0.64320000  0.43970000  1
  O  O521  1  0.66230000  0.35680000  0.43970000  1
  O  O522  1  0.66230000  0.64320000  0.56030000  1
  O  O523  1  0.33770000  0.35680000  0.56030000  1
  O  O524  1  0.83770000  0.14320000  0.93970000  1
  O  O525  1  0.16230000  0.85680000  0.93970000  1
  O  O526  1  0.16230000  0.14320000  0.06030000  1
  O  O527  1  0.83770000  0.85680000  0.06030000  1
  O  O528  1  0.66230000  0.35680000  0.56030000  1
  O  O529  1  0.33770000  0.64320000  0.56030000  1
  O  O530  1  0.33770000  0.35680000  0.43970000  1
  O  O531  1  0.66230000  0.64320000  0.43970000  1
  O  O532  1  0.16230000  0.85680000  0.06030000  1
  O  O533  1  0.83770000  0.14320000  0.06030000  1
  O  O534  1  0.83770000  0.85680000  0.93970000  1
  O  O535  1  0.16230000  0.14320000  0.93970000  1
  O  O536  1  0.16270000  0.69860000  0.05890000  1
  O  O537  1  0.83730000  0.30140000  0.05890000  1
  O  O538  1  0.83730000  0.69860000  0.94110000  1
  O  O539  1  0.16270000  0.30140000  0.94110000  1
  O  O540  1  0.66270000  0.19860000  0.55890000  1
  O  O541  1  0.33730000  0.80140000  0.55890000  1
  O  O542  1  0.33730000  0.19860000  0.44110000  1
  O  O543  1  0.66270000  0.80140000  0.44110000  1
  O  O544  1  0.83730000  0.30140000  0.94110000  1
  O  O545  1  0.16270000  0.69860000  0.94110000  1
  O  O546  1  0.16270000  0.30140000  0.05890000  1
  O  O547  1  0.83730000  0.69860000  0.05890000  1
  O  O548  1  0.33730000  0.80140000  0.44110000  1
  O  O549  1  0.66270000  0.19860000  0.44110000  1
  O  O550  1  0.66270000  0.80140000  0.55890000  1
  O  O551  1  0.33730000  0.19860000  0.55890000  1
  O  O552  1  0.09070000  0.73320000  0.10230000  1
  O  O553  1  0.90930000  0.26680000  0.10230000  1
  O  O554  1  0.90930000  0.73320000  0.89770000  1
  O  O555  1  0.09070000  0.26680000  0.89770000  1
  O  O556  1  0.59070000  0.23320000  0.60230000  1
  O  O557  1  0.40930000  0.76680000  0.60230000  1
  O  O558  1  0.40930000  0.23320000  0.39770000  1
  O  O559  1  0.59070000  0.76680000  0.39770000  1
  O  O560  1  0.90930000  0.26680000  0.89770000  1
  O  O561  1  0.09070000  0.73320000  0.89770000  1
  O  O562  1  0.09070000  0.26680000  0.10230000  1
  O  O563  1  0.90930000  0.73320000  0.10230000  1
  O  O564  1  0.40930000  0.76680000  0.39770000  1
  O  O565  1  0.59070000  0.23320000  0.39770000  1
  O  O566  1  0.59070000  0.76680000  0.60230000  1
  O  O567  1  0.40930000  0.23320000  0.60230000  1
  O  O568  1  0.57930000  0.60070000  0.50000000  1
  O  O569  1  0.42070000  0.39930000  0.50000000  1
  O  O570  1  0.42070000  0.60070000  0.50000000  1
  O  O571  1  0.57930000  0.39930000  0.50000000  1
  O  O572  1  0.07930000  0.10070000  0.00000000  1
  O  O573  1  0.92070000  0.89930000  0.00000000  1
  O  O574  1  0.92070000  0.10070000  0.00000000  1
  O  O575  1  0.07930000  0.89930000  0.00000000  1
  O  O576  1  0.58800000  0.84500000  0.50000000  1
  O  O577  1  0.41200000  0.15500000  0.50000000  1
  O  O578  1  0.41200000  0.84500000  0.50000000  1
  O  O579  1  0.58800000  0.15500000  0.50000000  1
  O  O580  1  0.08800000  0.34500000  0.00000000  1
  O  O581  1  0.91200000  0.65500000  0.00000000  1
  O  O582  1  0.91200000  0.34500000  0.00000000  1
  O  O583  1  0.08800000  0.65500000  0.00000000  1
  O  O584  1  0.50000000  0.67000000  0.46670000  1
  O  O585  1  0.50000000  0.33000000  0.46670000  1
  O  O586  1  0.50000000  0.67000000  0.53330000  1
  O  O587  1  0.50000000  0.33000000  0.53330000  1
  O  O588  1  0.00000000  0.17000000  0.96670000  1
  O  O589  1  0.00000000  0.83000000  0.96670000  1
  O  O590  1  0.00000000  0.17000000  0.03330000  1
  O  O591  1  0.00000000  0.83000000  0.03330000  1
  O  O592  1  0.61840000  0.72199000  0.46551000  1
  O  O593  1  0.38160000  0.27801000  0.46551000  1
  O  O594  1  0.38160000  0.72199000  0.53449000  1
  O  O595  1  0.61840000  0.27801000  0.53449000  1
  O  O596  1  0.11840000  0.22199000  0.96551000  1
  O  O597  1  0.88160000  0.22199000  0.03449000  1
  O  O598  1  0.11840000  0.77801000  0.03449000  1
  O  O599  1  0.38160000  0.27801000  0.53449000  1
  O  O600  1  0.61840000  0.72199000  0.53449000  1
  O  O601  1  0.61840000  0.27801000  0.46551000  1
  O  O602  1  0.38160000  0.72199000  0.46551000  1
  O  O603  1  0.88160000  0.77801000  0.03449000  1
  O  O604  1  0.11840000  0.22199000  0.03449000  1
  O  O605  1  0.11840000  0.77801000  0.96551000  1
  O  O606  1  0.50000000  0.77470000  0.46630000  1
  O  O607  1  0.50000000  0.22530000  0.46630000  1
  O  O608  1  0.50000000  0.77470000  0.53370000  1
  O  O609  1  0.50000000  0.22530000  0.53370000  1
  O  O610  1  0.00000000  0.27470000  0.96630000  1
  O  O611  1  0.00000000  0.72530000  0.96630000  1
  O  O612  1  0.00000000  0.27470000  0.03370000  1
  O  O613  1  0.00000000  0.72530000  0.03370000  1
  O  O614  1  0.77100000  0.77190000  0.50000000  1
  O  O615  1  0.22900000  0.22810000  0.50000000  1
  O  O616  1  0.22900000  0.77190000  0.50000000  1
  O  O617  1  0.77100000  0.22810000  0.50000000  1
  O  O618  1  0.27100000  0.27190000  0.00000000  1
  O  O619  1  0.72900000  0.72810000  0.00000000  1
  O  O620  1  0.72900000  0.27190000  0.00000000  1
  O  O621  1  0.27100000  0.72810000  0.00000000  1
  O  O622  1  0.76680000  0.66960000  0.50000000  1
  O  O623  1  0.23320000  0.33040000  0.50000000  1
  O  O624  1  0.23320000  0.66960000  0.50000000  1
  O  O625  1  0.76680000  0.33040000  0.50000000  1
  O  O626  1  0.26680000  0.16960000  0.00000000  1
  O  O627  1  0.73320000  0.83040000  0.00000000  1
  O  O628  1  0.73320000  0.16960000  0.00000000  1
  O  O629  1  0.26680000  0.83040000  0.00000000  1
  Eu  Eu630  1  0.50000000  0.72316000  0.42638000  1
  Eu  Eu631  1  0.50000000  0.27684000  0.42638000  1
  Eu  Eu632  1  0.50000000  0.72316000  0.57362000  1
  Eu  Eu633  1  0.50000000  0.27684000  0.57362000  1
  Eu  Eu634  1  0.00000000  0.22316000  0.92638000  1
  Eu  Eu635  1  0.00000000  0.77684000  0.92638000  1
  Eu  Eu636  1  0.00000000  0.22316000  0.07362000  1
  Eu  Eu637  1  0.00000000  0.77684000  0.07362000  1
  Eu  Eu638  1  0.62513000  0.77952000  0.50000000  1
  Eu  Eu639  1  0.37487000  0.22048000  0.50000000  1
  Eu  Eu640  1  0.37487000  0.77952000  0.50000000  1
  Eu  Eu641  1  0.62513000  0.22048000  0.50000000  1
  Eu  Eu642  1  0.12513000  0.27952000  0.00000000  1
  Eu  Eu643  1  0.87487000  0.72048000  0.00000000  1
  Eu  Eu644  1  0.87487000  0.27952000  0.00000000  1
  Eu  Eu645  1  0.12513000  0.72048000  0.00000000  1
  Eu  Eu646  1  0.62385000  0.66450000  0.50000000  1
  Eu  Eu647  1  0.37615000  0.33550000  0.50000000  1
  Eu  Eu648  1  0.37615000  0.66450000  0.50000000  1
  Eu  Eu649  1  0.62385000  0.33550000  0.50000000  1
  Eu  Eu650  1  0.12385000  0.16450000  0.00000000  1
  Eu  Eu651  1  0.87615000  0.83550000  0.00000000  1
  Eu  Eu652  1  0.87615000  0.16450000  0.00000000  1
  Eu  Eu653  1  0.12385000  0.83550000  0.00000000  1
  O  O654  1  0.88160000  0.77801000  0.96551000  1
  O  O655  1  0.88160000  0.22199000  0.96551000  1
  H  H656  1  0.50000000  0.56805600  0.47501100  1
  H  H657  1  0.50000000  0.43194400  0.47501100  1
  H  H658  1  0.00000000  0.06805590  0.97501080  1
  H  H659  1  0.00000000  0.93194400  0.97501080  1
  H  H660  1  0.50000000  0.87984400  0.47501100  1
  H  H661  1  0.50000000  0.12015600  0.52498900  1
  H  H662  1  0.00000000  0.37984400  0.97501080  1
  H  H663  1  0.00000000  0.62015600  0.97501080  1
  H  H664  1  0.79579100  0.78450200  0.52278600  1
  H  H665  1  0.78539800  0.74335300  0.50000000  1
  H  H666  1  0.20083000  0.20212200  0.49586900  1
  H  H667  1  0.21015300  0.23903000  0.52456900  1
  H  H668  1  0.20420900  0.78450200  0.47721400  1
  H  H669  1  0.21460200  0.74335300  0.50000000  1
  H  H670  1  0.79917000  0.20212200  0.50413100  1
  H  H671  1  0.78984700  0.23903000  0.47543100  1
  H  H672  1  0.28796300  0.25351000  0.02043810  1
  H  H673  1  0.28984700  0.26097000  0.97543080  1
  H  H674  1  0.71203700  0.74649000  0.02043810  1
  H  H675  1  0.71015300  0.73903000  0.97543080  1
  H  H676  1  0.70083000  0.29787800  0.00413110  1
  H  H677  1  0.71015300  0.26097000  0.97543080  1
  H  H678  1  0.29917000  0.70212200  0.00413110  1
  H  H679  1  0.28984700  0.73903000  0.97543080  1
  H  H680  1  0.79287300  0.64328300  0.50472500  1
  H  H681  1  0.78660400  0.67962300  0.47522200  1
  H  H682  1  0.20712700  0.35671700  0.50472500  1
  H  H683  1  0.21339600  0.32037700  0.47522200  1
  H  H684  1  0.20712700  0.64328300  0.49527500  1
  H  H685  1  0.21339600  0.67962300  0.52477800  1
  H  H686  1  0.79287300  0.35671700  0.49527500  1
  H  H687  1  0.78660400  0.32037700  0.52477800  1
  H  H688  1  0.29287300  0.14328300  0.00472492  1
  H  H689  1  0.28660400  0.17962300  0.97522170  1
  H  H690  1  0.71161800  0.83068700  0.02629220  1
  H  H691  1  0.70778000  0.85293400  0.98598440  1
  H  H692  1  0.71487300  0.18818500  0.02005340  1
  H  H693  1  0.71339600  0.17962300  0.97522170  1
  H  H694  1  0.29057600  0.84340100  0.02278630  1
  H  H695  1  0.28345300  0.80210800  0.00000000  1
